pglib_opf_case2736sp_k/pglib_opf_case2736sp_k_6regions.m
% -------------------------------------------------------------------------
% Partitioned MATPOWER Case File
% Copyright (c) 2025 Milad Hasanzadeh
% Generated on: 2026-06-09
% This file contains partitioned data for 6 regions


% -------------------- mpc_regionR1 --------------------

mpc_regionR1.version = '2';
mpc_regionR1.baseMVA = 100.0000;
mpc_regionR1.bus = [
%	bus_i       type        Pd          Qd          Gs          Bs          area        Vm          Va          baseKV      zone        Vmax        Vmin        
	 1	 1	 0	 0	 0	 0	 1	 1	 0	 400	 1	 1.05	 0.95;
	 2	 2	 18	 57	 0	 0	 1	 1	 0	 400	 3	 1.05	 0.95;
	 3	 1	 0	 0	 0	 0	 1	 1.03	 0	 220	 3	 1.11	 0.95;
	 4	 1	 0	 0	 0	 0	 1	 1.03	 0	 220	 3	 1.11	 0.95;
	 5	 1	 0	 0	 0	 0	 1	 1.03	 0	 220	 4	 1.11	 0.95;
	 6	 1	 0	 0	 0	 0	 1	 1.03	 0	 220	 4	 1.11	 0.95;
	 7	 1	 0	 0	 0	 0	 1	 1	 0	 400	 4	 1.05	 0.95;
	 8	 1	 0	 0	 0	 0	 1	 1	 0	 400	 4	 1.05	 0.95;
	 9	 1	 0	 0	 0	 0	 1	 1.03	 0	 220	 4	 1.11	 0.95;
	 10	 1	 0	 0	 0	 0	 1	 1.03	 0	 220	 4	 1.11	 0.95;
	 11	 1	 0	 0	 0	 0	 1	 1.03	 0	 220	 4	 1.11	 0.95;
	 12	 2	 19.475	 64.3	 0	 0	 1	 1.03	 0	 220	 4	 1.11	 0.95;
	 13	 2	 16	 33	 0	 0	 1	 1.03	 0	 220	 4	 1.11	 0.95;
	 14	 1	 0	 0	 0	 0	 1	 1	 0	 400	 4	 1.05	 0.95;
	 15	 2	 10	 25	 0	 0	 1	 1	 0	 400	 4	 1.05	 0.95;
	 16	 1	 0	 0	 0	 0	 1	 1	 0	 400	 4	 1.05	 0.95;
	 17	 1	 0	 0	 0	 0	 1	 1	 0	 400	 4	 1.05	 0.95;
	 18	 1	 0	 0	 0	 0	 1	 1	 0	 400	 4	 1.05	 0.95;
	 19	 1	 0	 0	 0	 0	 1	 1.03	 0	 220	 4	 1.11	 0.95;
	 20	 1	 0	 0	 0	 0	 1	 1.03	 0	 220	 4	 1.11	 0.95;
	 21	 1	 0	 0	 0	 0	 1	 1.03	 0	 220	 4	 1.11	 0.95;
	 22	 1	 0	 0	 0	 0	 1	 1.03	 0	 220	 4	 1.11	 0.95;
	 23	 1	 0	 0	 0	 0	 1	 1.03	 0	 220	 4	 1.11	 0.95;
	 24	 1	 0	 0	 0	 0	 1	 1.03	 0	 220	 4	 1.11	 0.95;
	 25	 1	 0	 0	 0	 0	 1	 1.03	 0	 220	 4	 1.11	 0.95;
	 26	 2	 0	 0	 0	 0	 1	 1.035	 0	 110	 1	 1.12	 0.95;
	 27	 2	 6.606	 2.1	 0	 0	 1	 1.035	 0	 110	 1	 1.12	 0.95;
	 28	 1	 3.729	 0.4	 0	 0	 1	 1.035	 0	 110	 1	 1.12	 0.95;
	 29	 1	 3.729	 0.4	 0	 0	 1	 1.035	 0	 110	 1	 1.12	 0.95;
	 30	 1	 5.328	 1.4	 0	 0	 1	 1.035	 0	 110	 1	 1.12	 0.95;
	 31	 1	 4.795	 0.5	 0	 0	 1	 1.035	 0	 110	 1	 1.12	 0.95;
	 32	 1	 1.492	 0.2	 0	 0	 1	 1.035	 0	 110	 1	 1.12	 0.95;
	 33	 1	 10.656	 1.2	 0	 0	 1	 1.035	 0	 110	 1	 1.12	 0.95;
	 34	 1	 19.18	 7	 0	 0	 1	 1.035	 0	 110	 1	 1.12	 0.95;
	 35	 1	 7.459	 4	 0	 0	 1	 1.035	 0	 110	 1	 1.12	 0.95;
	 36	 1	 2.131	 0.501	 0	 0	 1	 1.035	 0	 110	 1	 1.12	 0.95;
	 37	 1	 2.131	 0.5	 0	 0	 1	 1.035	 0	 110	 1	 1.12	 0.95;
	 38	 1	 13.853	 1.4	 0	 0	 1	 1.035	 0	 110	 1	 1.12	 0.95;
	 39	 1	 6.393	 0.6	 0	 0	 1	 1.035	 0	 110	 1	 1.12	 0.95;
	 40	 1	 4.256	 1.337	 0	 0	 1	 1.035	 0	 110	 3	 1.12	 0.95;
	 41	 1	 0	 0	 0	 0	 1	 1.035	 0	 110	 3	 1.12	 0.95;
	 42	 1	 0	 0	 0	 0	 1	 1.035	 0	 110	 3	 1.12	 0.95;
	 43	 1	 1.492	 0.223	 0	 0	 1	 1.035	 0	 110	 3	 1.12	 0.95;
	 44	 1	 12.424	 0.975	 0	 0	 1	 1.035	 0	 110	 3	 1.12	 0.95;
	 45	 1	 0	 0	 0	 0	 1	 1.035	 0	 110	 3	 1.12	 0.95;
	 46	 1	 0	 0	 0	 0	 1	 1.035	 0	 110	 3	 1.12	 0.95;
	 47	 1	 3.334	 0.484	 0	 0	 1	 1.035	 0	 110	 3	 1.12	 0.95;
	 48	 1	 0	 0	 0	 0	 1	 1.035	 0	 110	 3	 1.12	 0.95;
	 49	 1	 1.836	 0.297	 0	 0	 1	 1.035	 0	 110	 3	 1.12	 0.95;
	 50	 1	 4.712	 1.282	 0	 0	 1	 1.035	 0	 110	 3	 1.12	 0.95;
	 51	 1	 0	 0	 0	 0	 1	 1.035	 0	 110	 3	 1.12	 0.95;
	 52	 1	 1.377	 0.446	 0	 0	 1	 1.035	 0	 110	 3	 1.12	 0.95;
	 53	 1	 0	 0	 0	 0	 1	 1.035	 0	 110	 3	 1.12	 0.95;
	 54	 1	 0	 0	 0	 0	 1	 1.035	 0	 110	 3	 1.12	 0.95;
	 55	 2	 24.884	 53.714	 0	 0	 1	 1.035	 0	 110	 3	 1.12	 0.95;
	 56	 2	 24.884	 52.972	 0	 0	 1	 1.035	 0	 110	 3	 1.12	 0.95;
	 57	 1	 3.791	 0.562	 0	 0	 1	 1.035	 0	 110	 3	 1.12	 0.95;
	 58	 1	 2.986	 0.169	 0	 0	 1	 1.035	 0	 110	 3	 1.12	 0.95;
	 59	 1	 1.725	 0.732	 0	 0	 1	 1.035	 0	 110	 3	 1.12	 0.95;
	 60	 1	 0	 0	 0	 0	 1	 1.035	 0	 110	 3	 1.12	 0.95;
	 61	 1	 3.442	 0.446	 0	 0	 1	 1.035	 0	 110	 3	 1.12	 0.95;
	 62	 1	 0	 0.111	 0	 0	 1	 1.035	 0	 110	 3	 1.12	 0.95;
	 63	 1	 7.014	 0.424	 0	 0	 1	 1.035	 0	 110	 3	 1.12	 0.95;
	 64	 1	 0	 0	 0	 0	 1	 1.035	 0	 110	 3	 1.12	 0.95;
	 65	 1	 3.213	 0.446	 0	 0	 1	 1.035	 0	 110	 3	 1.12	 0.95;
	 66	 1	 11.474	 1.189	 0	 0	 1	 1.035	 0	 110	 3	 1.12	 0.95;
	 67	 1	 2.987	 0.767	 0	 0	 1	 1.035	 0	 110	 3	 1.12	 0.95;
	 68	 1	 5.403	 1.618	 0	 0	 1	 1.035	 0	 110	 3	 1.12	 0.95;
	 69	 1	 3.909	 2.082	 0	 0	 1	 1.035	 0	 110	 3	 1.12	 0.95;
	 70	 1	 1.837	 0.147	 0	 0	 1	 1.035	 0	 110	 3	 1.12	 0.95;
	 71	 1	 2.756	 0.311	 0	 0	 1	 1.035	 0	 110	 3	 1.12	 0.95;
	 72	 1	 2.181	 0.375	 0	 0	 1	 1.035	 0	 110	 3	 1.12	 0.95;
	 73	 1	 7.343	 0.297	 0	 0	 1	 1.035	 0	 110	 3	 1.12	 0.95;
	 74	 1	 2.295	 0.817	 0	 0	 1	 1.035	 0	 110	 3	 1.12	 0.95;
	 75	 1	 1.034	 0.493	 0	 0	 1	 1.035	 0	 110	 3	 1.12	 0.95;
	 76	 1	 4.362	-0.721	 0	 0	 1	 1.035	 0	 110	 3	 1.12	 0.95;
	 77	 1	 4.134	-0.807	 0	 0	 1	 1.035	 0	 110	 3	 1.12	 0.95;
	 78	 1	 3.675	 1.652	 0	 0	 1	 1.035	 0	 110	 3	 1.12	 0.95;
	 79	 1	 4.134	 0.842	 0	 0	 1	 1.035	 0	 110	 3	 1.12	 0.95;
	 80	 1	 2.869	 0	 0	 0	 1	 1.035	 0	 110	 3	 1.12	 0.95;
	 81	 1	 6.77	 0.446	 0	 0	 1	 1.035	 0	 110	 3	 1.12	 0.95;
	 82	 1	 1.378	 0.498	 0	 0	 1	 1.035	 0	 110	 3	 1.12	 0.95;
	 83	 1	 1.723	 0.655	 0	 0	 1	 1.035	 0	 110	 3	 1.12	 0.95;
	 84	 1	 4.948	 0.939	 0	 0	 1	 1.035	 0	 110	 3	 1.12	 0.95;
	 85	 1	 0	 0	 0	 0	 1	 1.035	 0	 110	 3	 1.12	 0.95;
	 86	 1	 0	 0	 0	 0	 1	 1.035	 0	 110	 3	 1.12	 0.95;
	 87	 1	 3.332	 1.082	 0	 0	 1	 1.035	 0	 110	 3	 1.12	 0.95;
	 88	 1	 2.872	 0.917	 0	 0	 1	 1.035	 0	 110	 3	 1.12	 0.95;
	 89	 1	 0	 0	 0	 0	 1	 1.035	 0	 110	 3	 1.12	 0.95;
	 90	 1	 5.065	 1.262	 0	 0	 1	 1.035	 0	 110	 3	 1.12	 0.95;
	 91	 1	 3.904	 0.646	 0	 0	 1	 1.035	 0	 110	 3	 1.12	 0.95;
	 92	 1	 7.008	 1.187	 0	 0	 1	 1.035	 0	 110	 3	 1.12	 0.95;
	 93	 1	 2.989	 0.692	 0	 0	 1	 1.035	 0	 110	 3	 1.12	 0.95;
	 94	 1	 2.068	 0.065	 0	 0	 1	 1.035	 0	 110	 3	 1.12	 0.95;
	 95	 2	 22.02	 6.967	 0	 0	 1	 1.035	 0	 110	 3	 1.12	 0.95;
	 96	 1	 5.173	 0.989	 0	 0	 1	 1.035	 0	 110	 3	 1.12	 0.95;
	 97	 1	 5.057	-0.083	 0	 0	 1	 1.035	 0	 110	 3	 1.12	 0.95;
	 98	 1	 2.065	 0.669	 0	 0	 1	 1.035	 0	 110	 3	 1.12	 0.95;
	 99	 1	 16.982	 8.023	 0	 0	 1	 1.035	 0	 110	 3	 1.12	 0.95;
	 100	 1	 0	 0	 0	 0	 1	 1.035	 0	 110	 3	 1.12	 0.95;
	 101	 1	 8.045	 1.465	 0	 0	 1	 1.035	 0	 110	 3	 1.12	 0.95;
	 102	 1	 4.251	 0.95	 0	 0	 1	 1.035	 0	 110	 3	 1.12	 0.95;
	 103	 1	 4.021	 0.42	 0	 0	 1	 1.035	 0	 110	 3	 1.12	 0.95;
	 104	 1	 2.528	 0.002	 0	 0	 1	 1.035	 0	 110	 3	 1.12	 0.95;
	 105	 1	 3.101	 0.397	 0	 0	 1	 1.035	 0	 110	 3	 1.12	 0.95;
	 106	 1	 2.296	 0.16	 0	 0	 1	 1.035	 0	 110	 3	 1.12	 0.95;
	 107	 1	 3.904	 0.13	 0	 0	 1	 1.035	 0	 110	 3	 1.12	 0.95;
	 108	 1	 2.986	 0.501	 0	 0	 1	 1.035	 0	 110	 3	 1.12	 0.95;
	 109	 1	 2.298	 0.218	 0	 0	 1	 1.035	 0	 110	 3	 1.12	 0.95;
	 110	 1	 3.334	 0.479	 0	 0	 1	 1.035	 0	 110	 3	 1.12	 0.95;
	 111	 1	 5.858	-0.765	 0	 0	 1	 1.035	 0	 110	 3	 1.12	 0.95;
	 112	 1	 4.478	 0.432	 0	 0	 1	 1.035	 0	 110	 3	 1.12	 0.95;
	 113	 1	 0	 0	 0	 0	 1	 1.035	 0	 110	 3	 1.12	 0.95;
	 114	 1	 6.784	-0.173	 0	 0	 1	 1.035	 0	 110	 3	 1.12	 0.95;
	 115	 1	 0	 0	 0	 0	 1	 1.035	 0	 110	 3	 1.12	 0.95;
	 116	 1	 5.622	 0.074	 0	 0	 1	 1.035	 0	 110	 3	 1.12	 0.95;
	 117	 1	 0	 0	 0	 0	 1	 1.035	 0	 110	 3	 1.12	 0.95;
	 118	 1	 0	 0	 0	 0	 1	 1.035	 0	 110	 3	 1.12	 0.95;
	 119	 1	 1.263	 0.42	 0	 0	 1	 1.035	 0	 110	 3	 1.12	 0.95;
	 120	 1	 1.953	 0.662	 0	 0	 1	 1.035	 0	 110	 3	 1.12	 0.95;
	 121	 1	 8.284	 1.83	 0	 0	 1	 1.035	 0	 110	 3	 1.12	 0.95;
	 122	 1	 1.608	 0.053	 0	 0	 1	 1.035	 0	 110	 3	 1.12	 0.95;
	 123	 1	 4.475	 0.149	 0	 0	 1	 1.035	 0	 110	 3	 1.12	 0.95;
	 124	 1	 1.726	-0.932	 0	 0	 1	 1.035	 0	 110	 3	 1.12	 0.95;
	 125	 1	 0	 0	 0	 0	 1	 1.035	 0	 110	 3	 1.12	 0.95;
	 126	 1	 4.131	 1.693	 0	 0	 1	 1.035	 0	 110	 3	 1.12	 0.95;
	 127	 1	 0	 0	 0	 0	 1	 1.035	 0	 110	 3	 1.12	 0.95;
	 128	 1	 0	 0	 0	 0	 1	 1.035	 0	 110	 3	 1.12	 0.95;
	 129	 1	 3.91	 0.504	 0	 0	 1	 1.035	 0	 110	 3	 1.12	 0.95;
	 130	 1	 2.524	 1.04	 0	 0	 1	 1.035	 0	 110	 3	 1.12	 0.95;
	 131	 1	 0	 0.024	 0	 0	 1	 1.035	 0	 110	 3	 1.12	 0.95;
	 132	 1	 0	 0	 0	 0	 1	 1.035	 0	 110	 3	 1.12	 0.95;
	 133	 1	 0	 0	 0	 0	 1	 1.035	 0	 110	 3	 1.12	 0.95;
	 134	 1	 5.975	 1.001	 0	 0	 1	 1.035	 0	 110	 3	 1.12	 0.95;
	 135	 1	 2.525	 0.269	 0	 0	 1	 1.035	 0	 110	 3	 1.12	 0.95;
	 136	 1	 3.1	 0.564	 0	 0	 1	 1.035	 0	 110	 3	 1.12	 0.95;
	 137	 1	 8.163	 0.678	 0	 0	 1	 1.035	 0	 110	 3	 1.12	 0.95;
	 138	 1	 0.803	 0.21	 0	 0	 1	 1.035	 0	 110	 3	 1.12	 0.95;
	 139	 1	 0	 0	 0	 0	 1	 1.035	 0	 110	 3	 1.12	 0.95;
	 140	 1	 2.527	 0.009	 0	 0	 1	 1.035	 0	 110	 3	 1.12	 0.95;
	 141	 1	 0	 0	 0	 0	 1	 1.035	 0	 110	 3	 1.12	 0.95;
	 142	 1	 4.022	 1.171	 0	 0	 1	 1.035	 0	 110	 3	 1.12	 0.95;
	 143	 1	 3.676	 1.158	 0	 0	 1	 1.035	 0	 110	 3	 1.12	 0.95;
	 144	 1	 2.065	 0.52	 0	 0	 1	 1.035	 0	 110	 3	 1.12	 0.95;
	 145	 1	 6.319	 0.784	 0	 0	 1	 1.035	 0	 110	 3	 1.12	 0.95;
	 146	 1	 10.462	 1.893	 0	 0	 1	 1.035	 0	 110	 3	 1.12	 0.95;
	 147	 1	 7.814	 0.542	 0	 0	 1	 1.035	 0	 110	 3	 1.12	 0.95;
	 148	 1	 4.711	 0.973	 0	 0	 1	 1.035	 0	 110	 3	 1.12	 0.95;
	 149	 1	 2.873	 0.536	 0	 0	 1	 1.035	 0	 110	 3	 1.12	 0.95;
	 150	 1	 1.377	 0.111	 0	 0	 1	 1.035	 0	 110	 3	 1.12	 0.95;
	 151	 1	 7.363	 0.974	 0	 0	 1	 1.035	 0	 110	 4	 1.12	 0.95;
	 152	 1	 0	 0	 0	 0	 1	 1.035	 0	 110	 4	 1.12	 0.95;
	 153	 1	 20.943	 4.136	 0	 0	 1	 1.035	 0	 110	 4	 1.12	 0.95;
	 154	 2	 5.703	-0.241	 0	 0	 1	 1.035	 0	 110	 4	 1.12	 0.95;
	 155	 1	 5.161	 0.644	 0	 0	 1	 1.035	 0	 110	 4	 1.12	 0.95;
	 156	 1	 5.449	 1.279	 0	 0	 1	 1.035	 0	 110	 4	 1.12	 0.95;
	 157	 2	 11.301	 2.343	 0	 0	 1	 1.035	 0	 110	 4	 1.12	 0.95;
	 158	 1	 3.684	 0.527	 0	 0	 1	 1.035	 0	 110	 4	 1.12	 0.95;
	 159	 1	 4.42	 0.335	 0	 0	 1	 1.035	 0	 110	 4	 1.12	 0.95;
	 160	 1	 3.684	 0.425	 0	 0	 1	 1.035	 0	 110	 4	 1.12	 0.95;
	 161	 1	 7.36	 1.477	 0	 0	 1	 1.035	 0	 110	 4	 1.12	 0.95;
	 162	 1	 4.715	 0.15	 0	 0	 1	 1.035	 0	 110	 4	 1.12	 0.95;
	 163	 1	 7.222	 0.806	 0	 0	 1	 1.035	 0	 110	 4	 1.12	 0.95;
	 164	 2	 4.706	 0.006	 0	 0	 1	 1.035	 0	 110	 4	 1.12	 0.95;
	 165	 1	 4.42	 0.121	 0	 0	 1	 1.035	 0	 110	 4	 1.12	 0.95;
	 166	 1	 4.021	-1.258	 0	 0	 1	 1.035	 0	 110	 4	 1.12	 0.95;
	 167	 2	 6.039	 0.894	 0	 0	 1	 1.035	 0	 110	 4	 1.12	 0.95;
	 168	 1	 0	 0	 0	 0	 1	 1.035	 0	 110	 4	 1.12	 0.95;
	 169	 2	 5.743	 3	 0	 0	 1	 1.035	 0	 110	 4	 1.12	 0.95;
	 170	 2	 0	 0	 0	 0	 1	 1.035	 0	 110	 4	 1.12	 0.95;
	 171	 1	 4.431	 2.199	 0	 0	 1	 1.035	 0	 110	 4	 1.12	 0.95;
	 172	 1	 6.336	 0.645	 0	 0	 1	 1.035	 0	 110	 4	 1.12	 0.95;
	 173	 1	 0	 0	 0	 0	 1	 1.035	 0	 110	 4	 1.12	 0.95;
	 174	 1	 0	 0	 0	 0	 1	 1.035	 0	 110	 4	 1.12	 0.95;
	 175	 1	 0	 0	 0	 0	 1	 1.035	 0	 110	 4	 1.12	 0.95;
	 176	 1	 0	 0	 0	 0	 1	 1.035	 0	 110	 4	 1.12	 0.95;
	 177	 1	 2.503	 0.088	 0	 0	 1	 1.035	 0	 110	 4	 1.12	 0.95;
	 178	 1	 4.954	 1.194	 0	 0	 1	 1.035	 0	 110	 4	 1.12	 0.95;
	 179	 1	 2.949	-0.02	 0	 0	 1	 1.035	 0	 110	 4	 1.12	 0.95;
	 180	 1	 6.339	 1.307	 0	 0	 1	 1.035	 0	 110	 4	 1.12	 0.95;
	 181	 1	 5.601	 0.979	 0	 0	 1	 1.035	 0	 110	 4	 1.12	 0.95;
	 182	 1	 6.477	-0.9	 0	 0	 1	 1.035	 0	 110	 4	 1.12	 0.95;
	 183	 1	 6.941	 1.068	 0	 0	 1	 1.035	 0	 110	 4	 1.12	 0.95;
	 184	 1	 4.426	 1.166	 0	 0	 1	 1.035	 0	 110	 4	 1.12	 0.95;
	 185	 1	 3.389	 0.271	 0	 0	 1	 1.035	 0	 110	 4	 1.12	 0.95;
	 186	 1	 0	 0	 0	 0	 1	 1.035	 0	 110	 4	 1.12	 0.95;
	 187	 1	 25.912	 6.029	 0	 0	 1	 1.035	 0	 110	 4	 1.12	 0.95;
	 188	 1	 0.3	 0.139	 0	 0	 1	 1.035	 0	 110	 4	 1.12	 0.95;
	 189	 1	 0	 0	 0	 0	 1	 1.035	 0	 110	 4	 1.12	 0.95;
	 190	 1	 4.565	 0.172	 0	 0	 1	 1.035	 0	 110	 4	 1.12	 0.95;
	 191	 2	 22.929	 0.449	 0	 0	 1	 1.035	 0	 110	 4	 1.12	 0.95;
	 192	 1	 0.042	 0.22	 0	 0	 1	 1.035	 0	 110	 4	 1.12	 0.95;
	 193	 1	 36.941	 12.339	 0	 0	 1	 1.035	 0	 110	 4	 1.12	 0.95;
	 194	 1	 36.806	 17	 0	 0	 1	 1.035	 0	 110	 4	 1.12	 0.95;
	 195	 2	 28.988	 7.935	 0	 0	 1	 1.035	 0	 110	 4	 1.12	 0.95;
	 196	 1	 0.65	 0.14	 0	 0	 1	 1.035	 0	 110	 4	 1.12	 0.95;
	 197	 1	 0.737	 0.251	 0	 0	 1	 1.035	 0	 110	 4	 1.12	 0.95;
	 198	 1	 3.243	 0.77	 0	 0	 1	 1.035	 0	 110	 4	 1.12	 0.95;
	 199	 2	 6.327	 0.3	 0	 0	 1	 1.035	 0	 110	 4	 1.12	 0.95;
	 200	 1	 2.211	 0.301	 0	 0	 1	 1.035	 0	 110	 4	 1.12	 0.95;
...
];

mpc_regionR1.gen = [
%	bus         Pg          Qg          Qmax        Qmin        Vg          mBase       status      Pmax        Pmin        Pc1         Pc2         Qc1min      Qc1max      Qc2min      Qc2max      ramp_agc    ramp_10     ramp_30     ramp_q      apf         
	 2	 300	 100.5	 232	-31	 1	 445.2	 1	 380	 220;
	 2	 0	 0	 228	-30	 1	 434.6	 0	 370	 220;
	 12	 164.5	 48	 149	-53	 1.03	 278.3	 1	 235	 94;
	 12	 0	 0	 149	-53	 1.03	 278.3	 0	 235	 94;
	 12	 182.5	 60	 120	 0	 1.03	 287.3	 1	 261	 104;
	 12	 0	 0	 132	-40	 1.03	 292.5	 0	 261	 104;
	 13	 0	 0	 120	 0	 1.03	 287.3	 0	 261	 104;
	 13	 167.5	 47.5	 117	-22	 1.03	 236	 1	 205	 130;
	 13	 163	 44.5	 109	-20	 1.03	 233.1	 1	 206	 120;
	 13	 0	 0	 109	-20	 1.03	 233.1	 0	 206	 120;
	 15	 163	 44.5	 109	-20	 1	 233.1	 1	 206	 120;
	 26	 1.55	 0.5	 1	 0	 1.035	 2.3	 1	 1.55	 1.55;
	 27	 1.55	 0.5	 1	 0	 1.035	 2.3	 1	 1.55	 1.55;
	 55	 303	 104	 240	-32	 1.035	 454.5	 1	 386	 220;
	 56	 295	 98.5	 227	-30	 1.035	 434.1	 1	 370	 220;
	 95	 20	 2.5	 5	 0	 1.035	 22.6	 1	 20	 20;
	 154	 1	 0	 0	 0	 1.035	 1.1	 1	 1	 1;
	 157	 1.2	 0	 0	 0	 1.035	 1.3	 1	 1.2	 1.2;
	 164	 0.2	 0	 0	 0	 1.035	 0.2	 1	 0.2	 0.2;
	 167	 0.1	 0	 0	 0	 1.035	 0.1	 1	 0.1	 0.1;
	 169	 17	 7.5	 15	 0	 1.035	 52.2	 1	 17	 17;
	 169	 0	 0	 15	 0	 1.035	 52.2	 0	 0	 0;
	 170	 0	 0	 10	 0	 1.035	 33.5	 0	 0	 0;
	 191	 14	 0	 0	 0	 1.035	 15.4	 1	 14	 14;
	 195	 8.5	 0	 0	 0	 1.035	 9.4	 1	 8.5	 8.5;
	 199	 0.1	 0	 0	 0	 1.035	 0.1	 1	 0.1	 0.1;
	 211	 0	 0	 1	 0	 1.035	 3.2	 0	 0	 0;
	 211	 2	 1	 2	 0	 1.035	 4.5	 1	 2	 2;
	 213	 0.2	 0	 0	 0	 1.035	 0.2	 1	 0.2	 0.2;
	 229	 3	 0	 0	 0	 1.035	 3.3	 1	 3	 3;
	 265	 1	 0	 0	 0	 1.035	 1.1	 1	 1	 1;
	 284	 0.8	 0	 0	 0	 1.035	 0.9	 1	 0.8	 0.8;
	 292	 0.2	 0	 0	 0	 1.035	 0.2	 1	 0.2	 0.2;
	 296	 4.5	 0	 0	 0	 1.035	 5	 1	 4.5	 4.5;
	 323	 2	 0	 0	 0	 1.035	 2.2	 1	 2	 2;
	 339	 0.2	 0	 0	 0	 1.035	 0.2	 1	 0.2	 0.2;
	 368	 164.5	 48	 149	-53	 1.035	 278.3	 1	 235	 94;
	 373	 0	 0	 15	 0	 1.035	 52.2	 0	 0	 0;
	 373	 72.5	 40	 80	 0	 1.035	 128.1	 1	 72.5	 72.5;
	 374	 0	 0	 80	 0	 1.035	 128.1	 0	 0	 0;
	 377	 4.4	 0	 0	 0	 1.035	 4.8	 1	 4.4	 4.4;
	 381	 2.5	 0	 0	 0	 1.035	 2.8	 1	 2.5	 2.5;
	 385	 0.2	 0	 0	 0	 1.035	 0.2	 1	 0.2	 0.2;
	 273	 2.567	 0.16	 0.16	 0.16	 1.035	 2.6	 1	 2.567	 2.567;
	 434	 0	 0	 0	 0	 1	 0	 1	 0	 0;
	 435	 0	 0	 0	 0	 1	 0	 1	 0	 0;
];

mpc_regionR1.branch = [
%	fbus        tbus        r           x           b           rateA       rateB       rateC       ratio       angle       status      angmin      angmax      
	 12	 14	 0.000232	 0.023	 0	 500	 500	 500	 1.0953	 0	 1	-30	 30;
	 13	 15	 0.000232	 0.023	 0	 500	 500	 500	 1.0953	 0	 1	-30	 30;
	 435	 14	 0.00031	 0.00338	 0.0992	 1386	 1386	 1386	 0	 0	 1	-30	 30;
	 435	 15	 0.00031	 0.00338	 0.0992	 1386	 1386	 1386	 0	 0	 1	-30	 30;
	 2	 434	 0.002769	 0.031162	 0.89824	 1386	 1386	 1386	 0	 0	 1	-30	 30;
	 23	 3	 0.005517	 0.059484	 0.170775	 316	 316	 316	 0	 0	 1	-30	 30;
	 17	 2	 0.00194	 0.02056	 0.51584	 1178	 1178	 1178	 0	 0	 1	-30	 30;
	 2	 1	 0.00331	 0.03425	 0.85888	 977	 977	 977	 0	 0	 1	-30	 30;
	 3	 4	 0.005702	 0.041488	 0.066172	 404	 404	 404	 0	 0	 1	-30	 30;
	 19	 13	 0.01545	 0.073349	 0.126614	 427	 427	 427	 0	 0	 1	-30	 30;
	 20	 12	 0.01545	 0.073349	 0.126614	 427	 427	 427	 0	 0	 1	-30	 30;
	 21	 12	 0.01457	 0.07955	 0.14007	 324	 324	 324	 0	 0	 1	-30	 30;
	 22	 13	 0.01457	 0.07955	 0.14007	 324	 324	 324	 0	 0	 1	-30	 30;
	 21	 9	 0.006031	 0.04401	 0.069793	 316	 316	 316	 0	 0	 1	-30	 30;
	 6	 12	 0.005831	 0.04231	 0.070664	 383	 383	 383	 0	 0	 1	-30	 30;
	 11	 20	 0.010581	 0.053	 0.088475	 385	 385	 385	 0	 0	 1	-30	 30;
	 5	 6	 0.00506	 0.036539	 0.063598	 305	 305	 305	 0	 0	 1	-30	 30;
	 21	 5	 0.002211	 0.01655	 0.024781	 316	 316	 316	 0	 0	 1	-30	 30;
	 23	 22	 0.005169	 0.036979	 0.058951	 316	 316	 316	 0	 0	 1	-30	 30;
	 25	 19	 0.002401	 0.017789	 0.027588	 381	 381	 381	 0	 0	 1	-30	 30;
	 14	 7	 0.00274	 0.02696	 0.70592	 977	 977	 977	 0	 0	 1	-30	 30;
	 18	 8	 0.0017	 0.01733	 0.45632	 915	 915	 915	 0	 0	 1	-30	 30;
	 16	 17	 0.00136	 0.01574	 0.433664	 1469	 1469	 1469	 0	 0	 1	-30	 30;
	 34	 1	 0.00137	 0.06119	-0.01504	 250	 250	 250	 1.0798	 0	 1	-30	 30;
	 35	 1	 0.00137	 0.06119	-0.01504	 250	 250	 250	 1.0699	 0	 1	-30	 30;
	 55	 2	 0.00156	 0.06269	-0.00992	 250	 250	 250	 1.092	 0	 1	-30	 30;
	 56	 2	 0.00156	 0.06269	-0.00992	 250	 250	 250	 1.0668	 0	 1	-30	 30;
	 73	 3	 0.001651	 0.06694	-0.003098	 160	 160	 160	 1.0097	 0	 1	-30	 30;
	 74	 3	 0.00145	 0.066531	-0.003194	 160	 160	 160	 1.0049	 0	 1	-30	 30;
	 159	 5	 0.00145	 0.06818	 0	 160	 160	 160	 1.0346	 0	 1	-30	 30;
	 160	 5	 0.001651	 0.06818	 0	 160	 160	 160	 1.0336	 0	 1	-30	 30;
	 173	 6	 0.00151	 0.06688	 0	 160	 160	 160	 1.0337	 0	 1	-30	 30;
	 175	 7	 0.00153	 0.06206	 0	 250	 250	 250	 1.1215	 0	 1	-30	 30;
	 176	 8	 0.00152	 0.06206	 0	 250	 250	 250	 1.1015	 0	 1	-30	 30;
	 218	 9	 0.00145	 0.06818	 0	 160	 160	 160	 1.0078	 0	 1	-30	 30;
	 219	 9	 0.00145	 0.06818	 0	 160	 160	 160	 1.0256	 0	 1	-30	 30;
	 269	 11	 0.001651	 0.0593	 0	 160	 160	 160	 1.0274	 0	 1	-30	 30;
	 281	 13	 0.001651	 0.092771	 0	 160	 160	 160	 1.0296	 0	 1	-30	 30;
	 282	 12	 0.001651	 0.06694	 0	 160	 160	 160	 1.0162	 0	 1	-30	 30;
	 297	 16	 0.00101	 0.06188	-0.01984	 330	 330	 330	 1.1039	 0	 1	-30	 30;
	 300	 17	 0.00101	 0.06188	 0	 330	 330	 330	 1.0942	 0	 1	-30	 30;
	 301	 17	 0.00138	 0.05931	 0	 250	 250	 250	 1.096	 0	 1	-30	 30;
	 318	 19	 0.001651	 0.066531	 0	 160	 160	 160	 1.0205	 0	 1	-30	 30;
	 319	 20	 0.001651	 0.06775	 0	 160	 160	 160	 1.0128	 0	 1	-30	 30;
	 355	 21	 0.001651	 0.06818	 0	 160	 160	 160	 1.0447	 0	 1	-30	 30;
	 356	 22	 0.001651	 0.06818	 0	 160	 160	 160	 1.0406	 0	 1	-30	 30;
	 422	 23	 0.001651	 0.06632	 0	 160	 160	 160	 1.0406	 0	 1	-30	 30;
	 432	 25	 0.001651	 0.06632	 0	 160	 160	 160	 1.0207	 0	 1	-30	 30;
	 431	 25	 0.001651	 0.06632	 0	 160	 160	 160	 1.0288	 0	 1	-30	 30;
	 212	 26	 0.061818	 0.105041	 0.01014	 59	 59	 59	 0	 0	 1	-30	 30;
	 391	 38	 0.059256	 0.103967	 0.010481	 59	 59	 59	 0	 0	 1	-30	 30;
	 86	 28	 0.033058	 0.080992	 0.01007	 120	 120	 120	 0	 0	 1	-30	 30;
	 292	 81	 0.035537	 0.066124	 0.00765	 90	 90	 90	 0	 0	 1	-30	 30;
	 418	 80	 0.070248	 0.120661	 0.012901	 67	 67	 67	 0	 0	 1	-30	 30;
	 421	 53	 0.021488	 0.027273	 0.005111	 90	 90	 90	 0	 0	 0	-30	 30;
	 89	 216	 0.040496	 0.050413	 0.00719	 57	 57	 57	 0	 0	 1	-30	 30;
	 38	 83	 0.057016	 0.113223	 0.01232	 90	 90	 90	 0	 0	 1	-30	 30;
	 37	 60	 0.009917	 0.029752	 0.00356	 137	 137	 137	 0	 0	 1	-30	 30;
	 113	 261	 0.012397	 0.03719	 0.004361	 114	 114	 114	 0	 0	 0	-30	 30;
	 34	 32	 0.01	 0.026281	 0.002669	 120	 120	 120	 0	 0	 1	-30	 30;
	 32	 31	 0.028017	 0.061818	 0.00747	 120	 120	 120	 0	 0	 1	-30	 30;
	 30	 33	 0.014132	 0.037273	 0.004	 90	 90	 90	 0	 0	 1	-30	 30;
	 36	 35	 0.012984	 0.042149	 0.004361	 133	 133	 133	 0	 0	 1	-30	 30;
	 34	 29	 0.003141	 0.009421	 0.000961	 120	 120	 120	 0	 0	 1	-30	 30;
	 27	 30	 0.044297	 0.093471	 0.00876	 90	 90	 90	 0	 0	 1	-30	 30;
	 38	 35	 0.018934	 0.062479	 0.019319	 133	 133	 133	 0	 0	 1	-30	 30;
	 39	 38	 0.024215	 0.079339	 0.008027	 133	 133	 133	 0	 0	 1	-30	 30;
	 39	 30	 0.022231	 0.07281	 0.00735	 133	 133	 133	 0	 0	 1	-30	 30;
	 53	 105	 0.036116	 0.050413	 0.008291	 57	 57	 57	 0	 0	 1	-30	 30;
	 52	 53	 0	 8.3e-05	 1e-05	 29	 29	 29	 0	 0	 1	-30	 30;
	 60	 54	 0.016198	 0.049174	 0.00584	 114	 114	 114	 0	 0	 1	-30	 30;
	 59	 60	 0.000165	 0.000248	 4.4e-05	 90	 90	 90	 0	 0	 1	-30	 30;
	 148	 58	 0.019752	 0.05124	 0.005878	 90	 90	 90	 0	 0	 1	-30	 30;
	 103	 88	 0.021818	 0.065702	 0.007795	 90	 90	 90	 0	 0	 1	-30	 30;
	 122	 88	 0.036281	 0.070579	 0.007366	 90	 90	 90	 0	 0	 1	-30	 30;
	 110	 85	 0.013471	 0.043306	 0.004559	 114	 114	 114	 0	 0	 1	-30	 30;
	 132	 104	 0.014711	 0.02595	 0.002841	 57	 57	 57	 0	 0	 1	-30	 30;
	 145	 86	 0.003058	 0.00843	 0.001447	 114	 114	 114	 0	 0	 1	-30	 30;
	 131	 57	 0.026777	 0.063223	 0.007267	 57	 57	 57	 0	 0	 1	-30	 30;
	 121	 109	 0.031983	 0.102397	 0.010846	 114	 114	 114	 0	 0	 1	-30	 30;
	 86	 82	 0.036116	 0.11595	 0.012221	 114	 114	 114	 0	 0	 1	-30	 30;
	 144	 84	 0.02281	 0.041818	 0.008523	 120	 120	 120	 0	 0	 1	-30	 30;
	 74	 69	 0.063554	 0.129835	 0.012678	 90	 90	 90	 0	 0	 1	-30	 30;
	 127	 76	 0.030413	 0.056942	 0.00521	 57	 57	 57	 0	 0	 1	-30	 30;
	 150	 127	 0.099008	 0.200248	 0.017475	 90	 90	 90	 0	 0	 1	-30	 30;
	 126	 127	 0.001983	 0.003306	 0.000353	 19	 19	 19	 0	 0	 1	-30	 30;
	 97	 149	 0.016116	 0.028512	 0.002735	 90	 90	 90	 0	 0	 1	-30	 30;
	 150	 65	 0.022727	 0.072645	 0.007749	 57	 57	 57	 0	 0	 1	-30	 30;
	 73	 80	 0.096446	 0.194711	 0.017877	 90	 90	 90	 0	 0	 1	-30	 30;
	 41	 64	 0.018017	 0.054711	 0.006486	 57	 57	 57	 0	 0	 1	-30	 30;
	 76	 41	 0.012397	 0.037603	 0.004441	 57	 57	 57	 0	 0	 1	-30	 30;
	 41	 40	 0.016529	 0.027273	 0.002948	 19	 19	 19	 0	 0	 1	-30	 30;
	 76	 106	 0.014545	 0.025124	 0.003572	 57	 57	 57	 0	 0	 1	-30	 30;
	 74	 72	 0.006612	 0.021074	 0.002248	 114	 114	 114	 0	 0	 1	-30	 30;
	 79	 73	 0.016364	 0.052149	 0.005588	 140	 140	 140	 0	 0	 1	-30	 30;
	 107	 73	 0.019504	 0.035537	 0.009019	 114	 114	 114	 0	 0	 1	-30	 30;
	 61	 74	 0.001322	 0.002314	 0.000242	 57	 57	 57	 0	 0	 1	-30	 30;
	 62	 73	 0.001322	 0.002314	 0.000242	 57	 57	 57	 0	 0	 1	-30	 30;
	 118	 74	 0.02843	 0.074132	 0.006752	 90	 90	 90	 0	 0	 1	-30	 30;
	 149	 118	 0.037769	 0.073802	 0.00657	 90	 90	 90	 0	 0	 1	-30	 30;
	 118	 116	 0.003306	 0.005455	 0.000581	 19	 19	 19	 0	 0	 1	-30	 30;
	 150	 91	 0.038182	 0.074876	 0.00666	 90	 90	 90	 0	 0	 1	-30	 30;
	 117	 73	 0.02843	 0.074132	 0.006752	 90	 90	 90	 0	 0	 1	-30	 30;
	 92	 117	 0.005207	 0.009835	 0.000956	 90	 90	 90	 0	 0	 1	-30	 30;
	 117	 115	 0.003306	 0.005455	 0.000581	 19	 19	 19	 0	 0	 1	-30	 30;
	 90	 88	 0.040496	 0.066694	 0.007214	 57	 57	 57	 0	 0	 1	-30	 30;
	 148	 107	 0.024463	 0.061322	 0.006793	 114	 114	 114	 0	 0	 1	-30	 30;
	 148	 108	 0.024463	 0.061322	 0.006793	 114	 114	 114	 0	 0	 1	-30	 30;
	 47	 94	 0.024793	 0.065454	 0.006614	 114	 114	 114	 0	 0	 1	-30	 30;
	 148	 130	 0.001074	 0.003471	 0.00037	 114	 114	 114	 0	 0	 1	-30	 30;
	 142	 87	 0.030744	 0.050661	 0.005474	 57	 57	 57	 0	 0	 1	-30	 30;
	 95	 149	 0.002314	 0.007438	 0.000799	 114	 114	 114	 0	 0	 1	-30	 30;
	 73	 66	 0.01124	 0.036116	 0.003816	 114	 114	 114	 0	 0	 1	-30	 30;
	 93	 87	 0.007769	 0.021736	 0.002362	 114	 114	 114	 0	 0	 1	-30	 30;
	 143	 102	 0.05	 0.082397	 0.008901	 57	 57	 57	 0	 0	 1	-30	 30;
	 108	 49	 0.026033	 0.065702	 0.007335	 114	 114	 114	 0	 0	 1	-30	 30;
	 120	 101	 0.042397	 0.069917	 0.00755	 57	 57	 57	 0	 0	 1	-30	 30;
	 43	 55	 0.00438	 0.014876	 0.001423	 114	 114	 114	 0	 0	 1	-30	 30;
	 133	 107	 0.025372	 0.062562	 0.006924	 114	 114	 114	 0	 0	 1	-30	 30;
	 140	 70	 0.013306	 0.040413	 0.004804	 57	 57	 57	 0	 0	 1	-30	 30;
	 55	 74	 0.01	 0.068512	 0.007647	 232	 232	 232	 0	 0	 1	-30	 30;
	 56	 134	 0.005868	 0.040083	 0.004518	 232	 232	 232	 0	 0	 1	-30	 30;
	 67	 71	 0.006281	 0.019835	 0.00218	 114	 114	 114	 0	 0	 1	-30	 30;
	 56	 68	 0.009421	 0.041736	 0.004576	 114	 114	 114	 0	 0	 1	-30	 30;
	 137	 71	 0.002149	 0.007273	 0.000758	 57	 57	 57	 0	 0	 1	-30	 30;
	 136	 72	 0.002149	 0.00719	 0.000753	 57	 57	 57	 0	 0	 1	-30	 30;
	 119	 42	 0.033058	 0.05686	 0.006142	 90	 90	 90	 0	 0	 1	-30	 30;
	 123	 44	 0.017769	 0.058016	 0.005917	 57	 57	 57	 0	 0	 1	-30	 30;
	 107	 46	 0.022479	 0.054545	 0.00621	 114	 114	 114	 0	 0	 1	-30	 30;
	 63	 69	 0.014545	 0.04405	 0.00522	 57	 57	 57	 0	 0	 1	-30	 30;
	 114	 76	 0.029917	 0.096116	 0.010188	 57	 57	 57	 0	 0	 1	-30	 30;
	 74	 139	 0.011157	 0.034545	 0.003903	 114	 114	 114	 0	 0	 1	-30	 30;
	 112	 129	 0.034628	 0.108843	 0.01203	 114	 114	 114	 0	 0	 1	-30	 30;
	 125	 55	 0.021074	 0.067686	 0.007149	 114	 114	 114	 0	 0	 1	-30	 30;
	 81	 125	 0.030413	 0.09438	 0.010721	 114	 114	 114	 0	 0	 1	-30	 30;
	 124	 125	 0.007603	 0.036364	 0.006795	 114	 114	 114	 0	 0	 1	-30	 30;
	 128	 56	 0.014711	 0.046529	 0.005092	 114	 114	 114	 0	 0	 1	-30	 30;
	 111	 80	 0.010248	 0.03124	 0.003698	 57	 57	 57	 0	 0	 1	-30	 30;
	 135	 73	 0.004628	 0.031736	 0.003586	 232	 232	 232	 0	 0	 1	-30	 30;
	 147	 78	 0.003388	 0.010331	 0.00121	 114	 114	 114	 0	 0	 1	-30	 30;
	 55	 146	 0.003306	 0.022479	 0.002502	 114	 114	 114	 0	 0	 1	-30	 30;
	 107	 55	 0.03438	 0.110579	 0.011626	 114	 114	 114	 0	 0	 1	-30	 30;
	 108	 56	 0.03438	 0.110579	 0.011628	 114	 114	 114	 0	 0	 1	-30	 30;
	 138	 75	 0.017025	 0.053058	 0.005936	 114	 114	 114	 0	 0	 1	-30	 30;
	 77	 50	 0.082314	 0.150413	 0.014297	 57	 57	 57	 0	 0	 1	-30	 30;
	 81	 69	 0.04719	 0.089008	 0.008707	 57	 57	 57	 0	 0	 1	-30	 30;
	 44	 77	 0.013636	 0.043967	 0.004617	 114	 114	 114	 0	 0	 1	-30	 30;
	 98	 107	 0.000826	 0.001653	 0	 229	 229	 229	 0	 0	 1	-30	 30;
	 99	 108	 0.000826	 0.001653	 0	 229	 229	 229	 0	 0	 1	-30	 30;
	 100	 107	 0.001157	 0.002066	 0	 229	 229	 229	 0	 0	 1	-30	 30;
	 394	 194	 0.058934	 0.123967	 0.011969	 78	 78	 78	 0	 0	 1	-30	 30;
	 330	 425	 0.03843	 0.06562	 0.006609	 78	 78	 78	 0	 0	 0	-30	 30;
	 354	 155	 0.02486	 0.043479	 0.00415	 120	 120	 120	 0	 0	 1	-30	 30;
	 406	 354	 0.022628	 0.03957	 0.00378	 120	 120	 120	 0	 0	 1	-30	 30;
	 349	 370	 0.020661	 0.06686	 0.006921	 82	 82	 82	 0	 0	 1	-30	 30;
	 254	 283	 0.059669	 0.104554	 0.009951	 59	 59	 59	 0	 0	 1	-30	 30;
	 166	 432	 0.027107	 0.046124	 0.00445	 78	 78	 78	 0	 0	 1	-30	 30;
	 344	 432	 0.033661	 0.114017	 0.011289	 123	 123	 123	 0	 0	 1	-30	 30;
	 252	 308	 0.024967	 0.08457	 0.008371	 105	 105	 105	 0	 0	 1	-30	 30;
	 358	 293	 0.032041	 0.108521	 0.01074	 105	 105	 105	 0	 0	 1	-30	 30;
	 359	 316	 0.016124	 0.05281	 0.005411	 114	 114	 114	 0	 0	 1	-30	 30;
	 199	 334	 0.016603	 0.056231	 0.005571	 10	 10	 10	 0	 0	 1	-30	 30;
	 303	 259	 0.104132	 0.168512	 0.01897	 78	 78	 78	 0	 0	 1	-30	 30;
	 302	 405	 0.033058	 0.049587	 0.00605	 76	 76	 76	 0	 0	 1	-30	 30;
	 405	 219	 0.1	 0.165289	 0.01822	 76	 76	 76	 0	 0	 1	-30	 30;
	 272	 405	 0.015703	 0.046281	 0.005009	 76	 76	 76	 0	 0	 1	-30	 30;
	 292	 169	 0.033802	 0.055372	 0.005951	 67	 67	 67	 0	 0	 0	-30	 30;
	 292	 202	 0.015703	 0.046281	 0.005009	 69	 69	 69	 0	 0	 1	-30	 30;
	 260	 218	 0.028934	 0.047107	 0.0053	 78	 78	 78	 0	 0	 1	-30	 30;
	 402	 398	 0.000554	 0.001818	 0.026831	 118	 118	 118	 0	 0	 1	-30	 30;
	 357	 170	 0.011983	 0.040562	 0.00401	 123	 123	 123	 0	 0	 1	-30	 30;
	 326	 392	 0.002661	 0.009017	 0.000891	 123	 123	 123	 0	 0	 1	-30	 30;
	 327	 393	 0.002661	 0.009017	 0.000891	 123	 123	 123	 0	 0	 1	-30	 30;
	 390	 219	 0.003314	 0.005793	 0.00061	 78	 78	 78	 0	 0	 1	-30	 30;
	 399	 390	 0.009917	 0.022314	 0.00242	 78	 78	 78	 0	 0	 1	-30	 30;
	 392	 218	 0.02562	 0.043802	 0.00455	 78	 78	 78	 0	 0	 1	-30	 30;
	 392	 170	 0.004132	 0.006612	 0.000731	 78	 78	 78	 0	 0	 1	-30	 30;
	 398	 393	 0.018182	 0.035537	 0.003901	 78	 78	 78	 0	 0	 1	-30	 30;
	 393	 169	 0.004132	 0.006612	 0.000731	 78	 78	 78	 0	 0	 1	-30	 30;
	 416	 301	 0.008769	 0.029686	 0.00294	 123	 123	 123	 0	 0	 1	-30	 30;
	 357	 416	 0.004446	 0.01505	 0.001491	 123	 123	 123	 0	 0	 1	-30	 30;
	 397	 416	 0.004967	 0.016827	 0.00167	 123	 123	 123	 0	 0	 1	-30	 30;
	 323	 169	 0.015703	 0.047934	 0.00515	 123	 123	 123	 0	 0	 1	-30	 30;
	 323	 300	 0.007438	 0.023967	 0.00257	 123	 123	 123	 0	 0	 1	-30	 30;
	 403	 373	 0.015703	 0.027273	 0.00264	 123	 123	 123	 0	 0	 1	-30	 30;
	 396	 300	 0.007438	 0.02562	 0.002781	 123	 123	 123	 0	 0	 1	-30	 30;
	 396	 383	 0.001653	 0.004132	 0.000409	 123	 123	 123	 0	 0	 1	-30	 30;
	 403	 383	 0.009091	 0.028099	 0.003071	 123	 123	 123	 0	 0	 1	-30	 30;
	 384	 301	 0.009091	 0.029752	 0.00319	 123	 123	 123	 0	 0	 1	-30	 30;
	 384	 374	 0.009091	 0.028099	 0.003071	 123	 123	 123	 0	 0	 1	-30	 30;
	 300	 290	 0.023141	 0.058678	 0.00574	 102	 102	 102	 0	 0	 1	-30	 30;
	 360	 301	 0.013719	 0.044463	 0.00439	 123	 123	 123	 0	 0	 1	-30	 30;
	 301	 293	 0.022314	 0.071818	 0.00702	 123	 123	 123	 0	 0	 1	-30	 30;
	 417	 301	 0.024893	 0.084322	 0.008349	 120	 120	 120	 0	 0	 1	-30	 30;
	 381	 417	 0.01362	 0.046124	 0.004569	 120	 120	 120	 0	 0	 1	-30	 30;
	 332	 300	 0.029496	 0.099901	 0.009891	 123	 123	 123	 0	 0	 1	-30	 30;
	 202	 285	 0.007521	 0.012562	 0.0013	 57	 57	 57	 0	 0	 1	-30	 30;
	 360	 283	 0.062149	 0.105041	 0.01058	 78	 78	 78	 0	 0	 1	-30	 30;
	 425	 290	 0.039669	 0.069421	 0.00666	 78	 78	 78	 0	 0	 1	-30	 30;
	 401	 373	 0.004959	 0.015703	 0.000801	 78	 78	 78	 0	 0	 1	-30	 30;
...
];

mpc_regionR1.gencost = [
%	2           startup     shutdown    n           c(n-1)...c0 
	 2	 0	 0	 3	 0	 90.03	 0;
	 2	 0	 0	 3	 0	 90.03	 0;
	 2	 0	 0	 3	 0	 98.84	 0;
	 2	 0	 0	 3	 0	 98.84	 0;
	 2	 0	 0	 3	 0	 98.84	 0;
	 2	 0	 0	 3	 0	 98.84	 0;
	 2	 0	 0	 3	 0	 98.84	 0;
	 2	 0	 0	 3	 0	 98.84	 0;
	 2	 0	 0	 3	 0	 98.84	 0;
	 2	 0	 0	 3	 0	 98.84	 0;
	 2	 0	 0	 3	 0	 98.84	 0;
	 2	 0	 0	 3	 0	 0	 0;
	 2	 0	 0	 3	 0	 0	 0;
	 2	 0	 0	 3	 0	 90.03	 0;
	 2	 0	 0	 3	 0	 90.03	 0;
	 2	 0	 0	 3	 0	 0	 0;
	 2	 0	 0	 3	 0	 0	 0;
	 2	 0	 0	 3	 0	 0	 0;
	 2	 0	 0	 3	 0	 0	 0;
	 2	 0	 0	 3	 0	 0	 0;
	 2	 0	 0	 3	 0	 0	 0;
	 2	 0	 0	 3	 0	 0	 0;
	 2	 0	 0	 3	 0	 0	 0;
	 2	 0	 0	 3	 0	 0	 0;
	 2	 0	 0	 3	 0	 0	 0;
	 2	 0	 0	 3	 0	 0	 0;
	 2	 0	 0	 3	 0	 0	 0;
	 2	 0	 0	 3	 0	 0	 0;
	 2	 0	 0	 3	 0	 0	 0;
	 2	 0	 0	 3	 0	 0	 0;
	 2	 0	 0	 3	 0	 0	 0;
	 2	 0	 0	 3	 0	 0	 0;
	 2	 0	 0	 3	 0	 0	 0;
	 2	 0	 0	 3	 0	 0	 0;
	 2	 0	 0	 3	 0	 0	 0;
	 2	 0	 0	 3	 0	 0	 0;
	 2	 0	 0	 3	 0	 98.84	 0;
	 2	 0	 0	 3	 0	 0	 0;
	 2	 0	 0	 3	 0	 0	 0;
	 2	 0	 0	 3	 0	 0	 0;
	 2	 0	 0	 3	 0	 0	 0;
	 2	 0	 0	 3	 0	 0	 0;
	 2	 0	 0	 3	 0	 0	 0;
	 2	 0	 0	 3	 0	 0	 0;
	 2	 0	 0	 3	 0	 0	 0;
	 2	 0	 0	 3	 0	 0	 0;
];


% -------------------- mpc_regionR2 --------------------

mpc_regionR2.version = '2';
mpc_regionR2.baseMVA = 100.0000;
mpc_regionR2.bus = [
%	bus_i       type        Pd          Qd          Gs          Bs          area        Vm          Va          baseKV      zone        Vmax        Vmin        
	 1	 1	 0	 0	 0	 0	 1	 1.03	 0	 220	 4	 1.11	 0.95;
	 2	 1	 0	 0	 0	 0	 1	 1.03	 0	 220	 4	 1.11	 0.95;
	 3	 1	 0	 0	 0	 0	 1	 1.03	 0	 220	 4	 1.11	 0.95;
	 4	 1	 0	 0	 0	 0	 1	 1.03	 0	 220	 4	 1.11	 0.95;
	 5	 2	 25.553	 12.9	 0	 0	 1	 1.03	 0	 220	 4	 1.11	 0.95;
	 6	 1	 0	 0	 0	 0	 1	 1.03	 0	 220	 4	 1.11	 0.95;
	 7	 2	 11	 12	 0	 0	 1	 1	 0	 400	 4	 1.05	 0.95;
	 8	 2	 11.922	 13.7	 0	 0	 1	 1	 0	 400	 4	 1.05	 0.95;
	 9	 1	 0	 0	 0	 0	 1	 1.03	 0	 220	 4	 1.11	 0.95;
	 10	 1	 0	 0	 0	 0	 1	 1.03	 0	 220	 4	 1.11	 0.95;
	 11	 1	 0	 0	 0	 0	 1	 1.03	 0	 220	 4	 1.11	 0.95;
	 12	 1	 0	 0	 0	 0	 1	 1.03	 0	 220	 4	 1.11	 0.95;
	 13	 1	 0	 0	 0	 0	 1	 1.03	 0	 220	 4	 1.11	 0.95;
	 14	 1	 0	 0	 0	 0	 1	 1.03	 0	 220	 4	 1.11	 0.95;
	 15	 1	 0	 0	 0	 0	 1	 1.03	 0	 220	 4	 1.11	 0.95;
	 16	 1	 0	 0	 0	 0	 1	 1.03	 0	 220	 4	 1.11	 0.95;
	 17	 1	 0	 0	 0	 0	 1	 1	 0	 400	 4	 1.05	 0.95;
	 18	 1	 0	 0	 0	 0	 1	 1	 0	 400	 4	 1.05	 0.95;
	 19	 1	 0	 0	 0	 0	 1	 1.03	 0	 220	 4	 1.11	 0.95;
	 20	 2	 3.13	 1.5	 0	 0	 1	 1.03	 0	 220	 4	 1.11	 0.95;
	 21	 1	 0	 0	 0	 0	 1	 1.03	 0	 220	 5	 1.11	 0.95;
	 22	 1	 0	 0	 0	 0	 1	 1	 0	 400	 5	 1.05	 0.95;
	 23	 1	 0	 0	 0	 0	 1	 1	 0	 400	 5	 1.05	 0.95;
	 24	 1	 0	 0	 0	 0	 1	 1.03	 0	 220	 5	 1.11	 0.95;
	 25	 1	 0	 0	 0	-117	 1	 1	 0	 400	 5	 1.05	 0.95;
	 26	 1	 0	 0	 0	 0	 1	 1	 0	 400	 5	 1.05	 0.95;
	 27	 2	 0	 0	 0	 0	 1	 1	 0	 400	 5	 1.05	 0.95;
	 28	 1	 0	 0	 0	 0	 1	 1.03	 0	 220	 5	 1.11	 0.95;
	 29	 1	 0	 0	 0	 0	 1	 1.03	 0	 220	 5	 1.11	 0.95;
	 30	 1	 12.954	 2.239	 0	 0	 1	 1.035	 0	 110	 4	 1.12	 0.95;
	 31	 1	 5.451	-0.734	 0	 0	 1	 1.035	 0	 110	 4	 1.12	 0.95;
	 32	 1	 4.864	 0.044	 0	 0	 1	 1.035	 0	 110	 4	 1.12	 0.95;
	 33	 1	 13.706	 2.223	 0	 0	 1	 1.035	 0	 110	 4	 1.12	 0.95;
	 34	 1	 6.33	-0.987	 0	 0	 1	 1.035	 0	 110	 4	 1.12	 0.95;
	 35	 1	 0	 0	 0	 0	 1	 1.035	 0	 110	 4	 1.12	 0.95;
	 36	 1	 5.599	 0.581	 0	 0	 1	 1.035	 0	 110	 4	 1.12	 0.95;
	 37	 1	 11.188	 2.652	 0	 0	 1	 1.035	 0	 110	 4	 1.12	 0.95;
	 38	 1	 1.035	-1.132	 0	 0	 1	 1.035	 0	 110	 4	 1.12	 0.95;
	 39	 1	 0.705	-0.023	 0	 0	 1	 1.035	 0	 110	 4	 1.12	 0.95;
	 40	 1	 0	 0	 0	 0	 1	 1.035	 0	 110	 4	 1.12	 0.95;
	 41	 1	 7.95	 0.7	 0	 0	 1	 1.035	 0	 110	 4	 1.12	 0.95;
	 42	 1	 14.281	-0.092	 0	 0	 1	 1.035	 0	 110	 4	 1.12	 0.95;
	 43	 1	 5.161	-0.032	 0	 0	 1	 1.035	 0	 110	 4	 1.12	 0.95;
	 44	 1	 6.194	-0.116	 0	 0	 1	 1.035	 0	 110	 4	 1.12	 0.95;
	 45	 1	 1.178	-2.1	 0	 0	 1	 1.035	 0	 110	 4	 1.12	 0.95;
	 46	 1	 5.307	 0.248	 0	 0	 1	 1.035	 0	 110	 4	 1.12	 0.95;
	 47	 1	 13.544	 1.781	 0	 0	 1	 1.035	 0	 110	 4	 1.12	 0.95;
	 48	 1	 1.653	 0.65	 0	 0	 1	 1.035	 0	 110	 4	 1.12	 0.95;
	 49	 1	 7.656	-1.155	 0	 0	 1	 1.035	 0	 110	 4	 1.12	 0.95;
	 50	 1	 2.295	 0.576	 0	 0	 1	 1.035	 0	 110	 4	 1.12	 0.95;
	 51	 1	 10.6	 0.984	 0	 0	 1	 1.035	 0	 110	 4	 1.12	 0.95;
	 52	 1	 10.911	 1.755	 0	 0	 1	 1.035	 0	 110	 4	 1.12	 0.95;
	 53	 1	 3.449	 0.356	 0	 0	 1	 1.035	 0	 110	 4	 1.12	 0.95;
	 54	 1	 3.243	 0.057	 0	 0	 1	 1.035	 0	 110	 4	 1.12	 0.95;
	 55	 1	 5.893	-0.154	 0	 0	 1	 1.035	 0	 110	 4	 1.12	 0.95;
	 56	 1	 7.235	 2.312	 0	 0	 1	 1.035	 0	 110	 4	 1.12	 0.95;
	 57	 2	 17.022	 7.9	 0	 0	 1	 1.035	 0	 110	 4	 1.12	 0.95;
	 58	 1	 0	 0	 0	 0	 1	 1.035	 0	 110	 4	 1.12	 0.95;
	 59	 1	 2.574	 0.076	 0	 0	 1	 1.035	 0	 110	 4	 1.12	 0.95;
	 60	 1	 2.141	 0.07	 0	 0	 1	 1.035	 0	 110	 4	 1.12	 0.95;
	 61	 1	 9.568	-0.514	 0	 0	 1	 1.035	 0	 110	 4	 1.12	 0.95;
	 62	 2	 0.265	 0.162	 0	 0	 1	 1.035	 0	 110	 4	 1.12	 0.95;
	 63	 1	 0	 0	 0	 0	 1	 1.035	 0	 110	 4	 1.12	 0.95;
	 64	 2	 5.16	 4.081	 0	 0	 1	 1.035	 0	 110	 4	 1.12	 0.95;
	 65	 2	 13.25	 8	 0	 0	 1	 1.035	 0	 110	 4	 1.12	 0.95;
	 66	 1	 6.19	 1.405	 0	 0	 1	 1.035	 0	 110	 4	 1.12	 0.95;
	 67	 1	 0	 0	 0	 0	 1	 1.035	 0	 110	 4	 1.12	 0.95;
	 68	 1	 5.157	 0.9	 0	 0	 1	 1.035	 0	 110	 4	 1.12	 0.95;
	 69	 1	 4.419	 1.2	 0	 0	 1	 1.035	 0	 110	 4	 1.12	 0.95;
	 70	 2	 4.917	 1.668	 0	 0	 1	 1.035	 0	 110	 4	 1.12	 0.95;
	 71	 1	 5.153	 1.2	 0	 0	 1	 1.035	 0	 110	 4	 1.12	 0.95;
	 72	 1	 0	 0	 0	 0	 1	 1.035	 0	 110	 4	 1.12	 0.95;
	 73	 1	 10.167	 1.832	 0	 0	 1	 1.035	 0	 110	 4	 1.12	 0.95;
	 74	 2	 33.273	 8	 0	 0	 1	 1.035	 0	 110	 4	 1.12	 0.95;
	 75	 2	 2.355	 0	 0	 0	 1	 1.035	 0	 110	 4	 1.12	 0.95;
	 76	 1	 6.931	 0.161	 0	 0	 1	 1.035	 0	 110	 4	 1.12	 0.95;
	 77	 1	 4.127	 0.585	 0	 0	 1	 1.035	 0	 110	 4	 1.12	 0.95;
	 78	 1	 4.422	 1.404	 0	 0	 1	 1.035	 0	 110	 4	 1.12	 0.95;
	 79	 1	 11.337	-1.154	 0	 0	 1	 1.035	 0	 110	 4	 1.12	 0.95;
	 80	 1	 11.799	 3.39	 0	 0	 1	 1.035	 0	 110	 4	 1.12	 0.95;
	 81	 1	 8.843	 1.23	 0	 0	 1	 1.035	 0	 110	 4	 1.12	 0.95;
	 82	 1	 6.19	 1.177	 0	 0	 1	 1.035	 0	 110	 4	 1.12	 0.95;
	 83	 1	 4.407	-1.342	 0	 0	 1	 1.035	 0	 110	 4	 1.12	 0.95;
	 84	 1	 16.23	 2.02	 0	 0	 1	 1.035	 0	 110	 4	 1.12	 0.95;
	 85	 1	 2.949	 0.67	 0	 0	 1	 1.035	 0	 110	 4	 1.12	 0.95;
	 86	 1	 3.243	 0.977	 0	 0	 1	 1.035	 0	 110	 4	 1.12	 0.95;
	 87	 1	 9.568	 3.382	 0	 0	 1	 1.035	 0	 110	 4	 1.12	 0.95;
	 88	 1	 10.319	 1.536	 0	 0	 1	 1.035	 0	 110	 4	 1.12	 0.95;
	 89	 1	 12.073	 1.954	 0	 0	 1	 1.035	 0	 110	 4	 1.12	 0.95;
	 90	 2	 3.488	 1.226	 0	 0	 1	 1.035	 0	 110	 4	 1.12	 0.95;
	 91	 1	 13.84	 4.33	 0	 0	 1	 1.035	 0	 110	 4	 1.12	 0.95;
	 92	 1	 15.753	 3.447	 0	 0	 1	 1.035	 0	 110	 4	 1.12	 0.95;
	 93	 1	 10.778	 1.282	 0	 0	 1	 1.035	 0	 110	 4	 1.12	 0.95;
	 94	 1	 13.899	 3.765	 0	 0	 1	 1.035	 0	 110	 4	 1.12	 0.95;
	 95	 1	 0	 0	 0	 0	 1	 1.035	 0	 110	 4	 1.12	 0.95;
	 96	 2	 40.491	 10.185	 0	 0	 1	 1.035	 0	 110	 4	 1.12	 0.95;
	 97	 1	 11.483	 2.542	 0	 0	 1	 1.035	 0	 110	 4	 1.12	 0.95;
	 98	 1	 4.418	 0.268	 0	 0	 1	 1.035	 0	 110	 4	 1.12	 0.95;
	 99	 1	 2.503	-0.192	 0	 0	 1	 1.035	 0	 110	 4	 1.12	 0.95;
	 100	 1	 2.608	 0.289	 0	 0	 1	 1.035	 0	 110	 4	 1.12	 0.95;
	 101	 1	 0	 0	 0	 0	 1	 1.035	 0	 110	 4	 1.12	 0.95;
	 102	 1	 0	 0	 0	 0	 1	 1.035	 0	 110	 4	 1.12	 0.95;
	 103	 1	 1.03	 0	 0	 0	 1	 1.035	 0	 110	 4	 1.12	 0.95;
	 104	 1	 5.744	-0.2	 0	 0	 1	 1.035	 0	 110	 4	 1.12	 0.95;
	 105	 1	 4.566	 0.752	 0	 0	 1	 1.035	 0	 110	 4	 1.12	 0.95;
	 106	 1	 8.424	-2.509	 0	 0	 1	 1.035	 0	 110	 4	 1.12	 0.95;
	 107	 1	 5.758	-0.143	 0	 0	 1	 1.035	 0	 110	 4	 1.12	 0.95;
	 108	 1	 6.33	 74.351	 0	 0	 1	 1.035	 0	 110	 4	 1.12	 0.95;
	 109	 1	 3.831	 1.005	 0	 0	 1	 1.035	 0	 110	 4	 1.12	 0.95;
	 110	 1	 1.032	 0.361	 0	 0	 1	 1.035	 0	 110	 4	 1.12	 0.95;
	 111	 1	 3.986	 0.158	 0	 0	 1	 1.035	 0	 110	 4	 1.12	 0.95;
	 112	 1	 9.138	-0.873	 0	 0	 1	 1.035	 0	 110	 4	 1.12	 0.95;
	 113	 1	 6.626	 0.537	 0	 0	 1	 1.035	 0	 110	 4	 1.12	 0.95;
	 114	 1	 9.733	 1.792	 0	 0	 1	 1.035	 0	 110	 4	 1.12	 0.95;
	 115	 1	 4.274	 0.998	 0	 0	 1	 1.035	 0	 110	 4	 1.12	 0.95;
	 116	 1	 10.748	 3.02	 0	 0	 1	 1.035	 0	 110	 4	 1.12	 0.95;
	 117	 1	 3.094	 0.829	 0	 0	 1	 1.035	 0	 110	 4	 1.12	 0.95;
	 118	 1	 5.159	 0.435	 0	 0	 1	 1.035	 0	 110	 4	 1.12	 0.95;
	 119	 1	 8.991	-1.028	 0	 0	 1	 1.035	 0	 110	 4	 1.12	 0.95;
	 120	 1	 5.888	 2.426	 0	 0	 1	 1.035	 0	 110	 4	 1.12	 0.95;
	 121	 1	 2.502	 0.1	 0	 0	 1	 1.035	 0	 110	 4	 1.12	 0.95;
	 122	 1	 8.097	 3.378	 0	 0	 1	 1.035	 0	 110	 4	 1.12	 0.95;
	 123	 1	 10.893	 2.376	 0	 0	 1	 1.035	 0	 110	 4	 1.12	 0.95;
	 124	 1	 7.214	 1.4	 0	 0	 1	 1.035	 0	 110	 4	 1.12	 0.95;
	 125	 1	 2.933	-0.339	 0	 0	 1	 1.035	 0	 110	 4	 1.12	 0.95;
	 126	 1	 15.897	 3.99	 0	 0	 1	 1.035	 0	 110	 4	 1.12	 0.95;
	 127	 1	 3.389	-0.268	 0	 0	 1	 1.035	 0	 110	 4	 1.12	 0.95;
	 128	 1	 8.401	-1.337	 0	 0	 1	 1.035	 0	 110	 4	 1.12	 0.95;
	 129	 1	 5.307	-0.156	 0	 0	 1	 1.035	 0	 110	 4	 1.12	 0.95;
	 130	 1	 3.532	-0.456	 0	 0	 1	 1.035	 0	 110	 4	 1.12	 0.95;
	 131	 2	 2.319	-0.878	 0	 0	 1	 1.035	 0	 110	 4	 1.12	 0.95;
	 132	 1	 5.598	-0.948	 0	 0	 1	 1.035	 0	 110	 4	 1.12	 0.95;
	 133	 1	 2.946	 1.015	 0	 0	 1	 1.035	 0	 110	 4	 1.12	 0.95;
	 134	 1	 6.927	 0.889	 0	 0	 1	 1.035	 0	 110	 4	 1.12	 0.95;
	 135	 2	 14.411	 1.88	 0	 0	 1	 1.035	 0	 110	 4	 1.12	 0.95;
	 136	 1	 10.023	 0.602	 0	 0	 1	 1.035	 0	 110	 4	 1.12	 0.95;
	 137	 1	 11.924	 2.053	 0	 0	 1	 1.035	 0	 110	 4	 1.12	 0.95;
	 138	 1	 0	 0	 0	 0	 1	 1.035	 0	 110	 4	 1.12	 0.95;
	 139	 1	 0	 0	 0	 0	 1	 1.035	 0	 110	 4	 1.12	 0.95;
	 140	 2	 41.397	 5.143	 0	 0	 1	 1.035	 0	 110	 4	 1.12	 0.95;
	 141	 1	 19.737	 4.557	 0	 0	 1	 1.035	 0	 110	 4	 1.12	 0.95;
	 142	 1	 0	 0	 0	 0	 1	 1.035	 0	 110	 4	 1.12	 0.95;
	 143	 1	 0	 0	 0	 0	 1	 1.035	 0	 110	 4	 1.12	 0.95;
	 144	 1	 4.718	-1.56	 0	 0	 1	 1.035	 0	 110	 4	 1.12	 0.95;
	 145	 1	 12.385	 1.671	 0	 0	 1	 1.035	 0	 110	 4	 1.12	 0.95;
	 146	 1	 12.367	 0.534	 0	 0	 1	 1.035	 0	 110	 4	 1.12	 0.95;
	 147	 1	 8.981	 0.663	 0	 0	 1	 1.035	 0	 110	 4	 1.12	 0.95;
	 148	 1	 0	 0	 0	 0	 1	 1.035	 0	 110	 4	 1.12	 0.95;
	 149	 1	 5.743	-0.6	 0	 0	 1	 1.035	 0	 110	 4	 1.12	 0.95;
	 150	 1	 11.779	 4.085	 0	 0	 1	 1.035	 0	 110	 4	 1.12	 0.95;
	 151	 2	 5.255	 1.7	 0	 0	 1	 1.035	 0	 110	 4	 1.12	 0.95;
	 152	 2	 6.036	 4.1	 0	 0	 1	 1.035	 0	 110	 4	 1.12	 0.95;
	 153	 1	 9.422	 1.406	 0	 0	 1	 1.035	 0	 110	 4	 1.12	 0.95;
	 154	 1	 11.487	 1.49	 0	 0	 1	 1.035	 0	 110	 4	 1.12	 0.95;
	 155	 1	 3.975	 1.039	 0	 0	 1	 1.035	 0	 110	 4	 1.12	 0.95;
	 156	 1	 7.214	 0.569	 0	 0	 1	 1.035	 0	 110	 4	 1.12	 0.95;
	 157	 1	 15.753	 2.548	 0	 0	 1	 1.035	 0	 110	 4	 1.12	 0.95;
	 158	 1	 6.626	 0.6	 0	 0	 1	 1.035	 0	 110	 4	 1.12	 0.95;
	 159	 1	 7.067	 1.3	 0	 0	 1	 1.035	 0	 110	 4	 1.12	 0.95;
	 160	 1	 8.981	 1.2	 0	 0	 1	 1.035	 0	 110	 4	 1.12	 0.95;
	 161	 1	 6.64	 2.716	 0	 0	 1	 1.035	 0	 110	 4	 1.12	 0.95;
	 162	 2	 14.267	 2.345	 0	 0	 1	 1.035	 0	 110	 4	 1.12	 0.95;
	 163	 1	 0	 0	 0	 0	 1	 1.035	 0	 110	 4	 1.12	 0.95;
	 164	 1	 9.863	 0.201	 0	 0	 1	 1.035	 0	 110	 4	 1.12	 0.95;
	 165	 1	 2.652	 0.797	 0	 0	 1	 1.035	 0	 110	 4	 1.12	 0.95;
	 166	 1	 6.483	-1.215	 0	 0	 1	 1.035	 0	 110	 4	 1.12	 0.95;
	 167	 1	 6.931	-0.464	 0	 0	 1	 1.035	 0	 110	 4	 1.12	 0.95;
	 168	 1	 6.103	 0.213	 0	 0	 1	 1.035	 0	 110	 4	 1.12	 0.95;
	 169	 1	 0	 0	 0	 0	 1	 1.035	 0	 110	 4	 1.12	 0.95;
	 170	 1	 7.36	 2.863	 0	 0	 1	 1.035	 0	 110	 4	 1.12	 0.95;
	 171	 2	 14.843	-3.17	 0	 0	 1	 1.035	 0	 110	 4	 1.12	 0.95;
	 172	 1	 12.846	-3	 0	 0	 1	 1.035	 0	 110	 4	 1.12	 0.95;
	 173	 2	 5.461	 1.071	 0	 0	 1	 1.035	 0	 110	 4	 1.12	 0.95;
	 174	 1	 15.178	-1.114	 0	 0	 1	 1.035	 0	 110	 4	 1.12	 0.95;
	 175	 1	 10.6	 0.121	 0	 0	 1	 1.035	 0	 110	 4	 1.12	 0.95;
	 176	 1	 6.784	 1.521	 0	 0	 1	 1.035	 0	 110	 4	 1.12	 0.95;
	 177	 1	 6.044	 0.5	 0	 0	 1	 1.035	 0	 110	 4	 1.12	 0.95;
	 178	 1	 17.373	 3.742	 0	 0	 1	 1.035	 0	 110	 4	 1.12	 0.95;
	 179	 1	 13.857	 2.278	 0	 0	 1	 1.035	 0	 110	 4	 1.12	 0.95;
	 180	 1	 0	 0	 0	 0	 1	 1.035	 0	 110	 4	 1.12	 0.95;
	 181	 1	 0.737	 0.202	 0	 0	 1	 1.035	 0	 110	 4	 1.12	 0.95;
	 182	 1	 11.206	 1.532	 0	 0	 1	 1.035	 0	 110	 4	 1.12	 0.95;
	 183	 2	 9.422	 0	 0	 0	 1	 1.035	 0	 110	 4	 1.12	 0.95;
	 184	 1	 4.565	 1.311	 0	 0	 1	 1.035	 0	 110	 4	 1.12	 0.95;
	 185	 2	 6.631	 0.3	 0	 0	 1	 1.035	 0	 110	 4	 1.12	 0.95;
	 186	 1	 20.17	 0.016	 0	 0	 1	 1.035	 0	 110	 4	 1.12	 0.95;
	 187	 1	 6.036	 0.241	 0	 0	 1	 1.035	 0	 110	 4	 1.12	 0.95;
	 188	 1	 21.822	 4.492	 0	 0	 1	 1.035	 0	 110	 4	 1.12	 0.95;
	 189	 1	 13.985	 1.282	 0	 0	 1	 1.035	 0	 110	 4	 1.12	 0.95;
	 190	 1	 10.307	 1.453	 0	 0	 1	 1.035	 0	 110	 4	 1.12	 0.95;
	 191	 1	 1.471	 0.051	 0	 0	 1	 1.035	 0	 110	 4	 1.12	 0.95;
	 192	 1	 3.243	 0.187	 0	 0	 1	 1.035	 0	 110	 4	 1.12	 0.95;
	 193	 1	 10.307	 2.141	 0	 0	 1	 1.035	 0	 110	 4	 1.12	 0.95;
	 194	 1	 11.778	-0.844	 0	 0	 1	 1.035	 0	 110	 4	 1.12	 0.95;
	 195	 1	 12.662	 0.698	 0	 0	 1	 1.035	 0	 110	 4	 1.12	 0.95;
	 196	 1	 3.094	-1.341	 0	 0	 1	 1.035	 0	 110	 4	 1.12	 0.95;
	 197	 1	 0	 0	 0	 0	 1	 1.035	 0	 110	 4	 1.12	 0.95;
	 198	 1	 0	 0	 0	 0	 1	 1.035	 0	 110	 4	 1.12	 0.95;
	 199	 1	 0	 0	 0	 0	 1	 1.035	 0	 110	 4	 1.12	 0.95;
	 200	 1	 0	 0	 0	 0	 1	 1.035	 0	 110	 4	 1.12	 0.95;
...
];

mpc_regionR2.gen = [
%	bus         Pg          Qg          Qmax        Qmin        Vg          mBase       status      Pmax        Pmin        Pc1         Pc2         Qc1min      Qc1max      Qc2min      Qc2max      ramp_agc    ramp_10     ramp_30     ramp_q      apf         
	 5	 0	 0	 149	-48	 1.03	 267.4	 0	 222	 90;
	 5	 0	 0	 149	-48	 1.03	 253.4	 0	 205	 135;
	 5	 0	 0	 149	-48	 1.03	 253.4	 0	 205	 135;
	 5	 156	 50.5	 149	-48	 1.03	 267.4	 1	 222	 90;
	 7	 156	 50	 123	-23	 1	 253.8	 1	 222	 90;
	 8	 156	 50.5	 149	-48	 1	 267.4	 1	 222	 90;
	 8	 0	 0	 123	-23	 1	 253.8	 0	 222	 90;
	 20	 170	 55	 110	 0	 1.03	 219.5	 1	 170	 170;
	 27	 89.5	 25	 110	-60	 1	 210.1	 1	 179	 0;
	 27	 89.5	 25	 110	-60	 1	 210.1	 1	 179	 0;
	 27	 89.5	 25	 110	-60	 1	 210.1	 1	 179	 0;
	 57	 156	 50.5	 149	-48	 1.035	 267.4	 1	 222	 90;
	 62	 0	 0	 8	 0	 1.035	 27.3	 0	 26.1	 0;
	 62	 13.65	 4.0005	 8.001	 0	 1.035	 28.4	 1	 27.3	 0;
	 62	 0	 0	 8	 0	 1.035	 27.3	 0	 26.1	 0;
	 64	 40	 11.291	 22.582	 0	 1.035	 59.5	 1	 40	 40;
	 64	 80	 40	 80	 0	 1.035	 128.1	 1	 80	 80;
	 65	 0	 0	 90	 0	 1.035	 150.4	 0	 0	 0;
	 70	 0.4	 0	 0	 0	 1.035	 0.4	 1	 0.4	 0.4;
	 74	 0	 0	 10	 0	 1.035	 30.2	 0	 0	 0;
	 74	 0	 0	 10	 0	 1.035	 30.2	 0	 0	 0;
	 74	 25	 6	 12	 0	 1.035	 55.8	 1	 25	 25;
	 75	 0	 0	 2	 0	 1.035	 5.4	 0	 0	 0;
	 75	 0	 0	 2	 0	 1.035	 6.3	 0	 0	 0;
	 90	 1	 0	 0	 0	 1.035	 1.1	 1	 1	 1;
	 96	 4.5	 0	 0	 0	 1.035	 5	 1	 4.5	 4.5;
	 131	 0.8	 0	 0	 0	 1.035	 0.9	 1	 0.8	 0.8;
	 135	 0.4	 0	 0	 0	 1.035	 0.4	 1	 0.4	 0.4;
	 140	 14.5	 0	 0	 0	 1.035	 16	 1	 14.5	 14.5;
	 151	 50	 7.5	 15	 0	 1.035	 66.7	 1	 50	 50;
	 152	 0	 0	 15	 0	 1.035	 66.7	 0	 0	 0;
	 162	 4	 0	 0	 0	 1.035	 4.4	 1	 4	 4;
	 171	 1	 0	 0	 0	 1.035	 1.1	 1	 1	 1;
	 173	 0.2	 0	 0	 0	 1.035	 0.2	 1	 0.2	 0.2;
	 183	 0	 0	 15	 0	 1.035	 58	 0	 0	 0;
	 183	 0	 0	 6	 0	 1.035	 19	 0	 0	 0;
	 183	 2	 1	 2	 0	 1.035	 4.5	 1	 2	 2;
	 185	 0.1	 0	 0	 0	 1.035	 0.1	 1	 0.1	 0.1;
	 213	 3	 4.9995	 10	-0.001	 1.035	 14.5	 1	 3	 3;
	 213	 0	 0	 10	 0	 1.035	 15.6	 0	 0	 0;
	 216	 0.5	 0	 0	 0	 1.035	 0.6	 1	 0.5	 0.5;
	 218	 0.1	 0.8	 1.6	 0	 1.035	 1.6	 1	 0.1	 0.1;
	 221	 0.3	 1.2	 2.4	 0	 1.035	 2.4	 1	 0.3	 0.3;
	 222	 29	 2.5	 5	 0	 1.035	 32.3	 1	 29	 29;
	 223	 0	 0	 0	 0	 1.035	 22	 1	 0	 0;
	 225	 0	 0.55	 1.1	 0	 1.035	 1.1	 1	 0	 0;
	 226	 0.2	 0.7	 1.4	 0	 1.035	 1.4	 1	 0.2	 0.2;
	 227	 0.3	 0.05	 0.1	 0	 1.035	 0.3	 1	 0.3	 0.3;
	 228	 0.5	 0.05	 0.1	 0	 1.035	 0.6	 1	 0.5	 0.5;
	 229	 0	 1.05	 2.1	 0	 1.035	 2.1	 1	 0	 0;
	 230	 4	 1.65	 3.3	 0	 1.035	 5.5	 1	 4	 4;
	 233	 3.5	 0.5	 1	 0	 1.035	 4	 1	 3.5	 3.5;
	 237	 0	 1	 2	 0	 1.035	 2	 1	 0	 0;
	 241	 0	 0.7	 1.4	 0	 1.035	 1.4	 1	 0	 0;
	 243	 0	 1.55	 3.1	 0	 1.035	 3.1	 1	 0	 0;
	 245	 0	 0.6	 1.2	 0	 1.035	 1.2	 1	 0	 0;
	 246	 0	 1.8	 3.6	 0	 1.035	 3.6	 1	 0	 0;
	 247	 0.5	 1.8	 3.6	 0	 1.035	 3.6	 1	 0.5	 0.5;
	 248	 1	 0.9	 1.8	 0	 1.035	 2.1	 1	 1	 1;
	 249	 0	 0.55	 1.1	 0	 1.035	 1.1	 1	 0	 0;
	 250	 0.1	 0.85	 1.7	 0	 1.035	 1.7	 1	 0.1	 0.1;
	 251	 0	 0.45	 0.9	 0	 1.035	 0.9	 1	 0	 0;
	 252	 0.4	 0.95	 1.9	 0	 1.035	 2	 1	 0.4	 0.4;
	 253	 0.5	 0.05	 0.1	 0	 1.035	 0.6	 1	 0.5	 0.5;
	 262	 0	 0.95	 1.9	 0	 1.035	 1.9	 1	 0	 0;
	 263	 0	 1	 2	 0	 1.035	 2	 1	 0	 0;
	 265	 0	 0.6	 1.2	 0	 1.035	 1.2	 1	 0	 0;
	 266	 0.7	 2.4	 4.8	 0	 1.035	 4.9	 1	 0.7	 0.7;
	 267	 0	 0.6	 1.2	 0	 1.035	 1.2	 1	 0	 0;
	 268	 0	 0.3	 0.6	 0	 1.035	 0.6	 1	 0	 0;
	 269	 0	 0.75	 1.5	 0	 1.035	 1.5	 1	 0	 0;
	 273	 0	 1.95	 3.9	 0	 1.035	 3.9	 1	 0	 0;
	 275	 0	 1.15	 2.3	 0	 1.035	 2.3	 1	 0	 0;
	 277	 2.5	 0	 0	 0	 1.035	 2.8	 1	 2.5	 2.5;
	 278	 0	 0.6	 1.2	 0	 1.035	 1.2	 1	 0	 0;
	 279	 0	 0.6	 1.2	 0	 1.035	 1.2	 1	 0	 0;
	 282	 0.1	 0.6	 1.2	 0	 1.035	 1.2	 1	 0.1	 0.1;
	 285	 0	 0.5	 1	 0	 1.035	 1	 1	 0	 0;
	 288	 0	 0	 26	-18	 1.035	 56.4	 0	 0	 0;
	 288	 0	 0	 26	-18	 1.035	 56.4	 0	 0	 0;
	 288	 0	 0	 26	-18	 1.035	 56.4	 0	 0	 0;
	 291	 176.691	-46.105	-46.105	-46.105	 1.03	 182.6	 1	 176.691	 176.691;
];

mpc_regionR2.branch = [
%	fbus        tbus        r           x           b           rateA       rateB       rateC       ratio       angle       status      angmin      angmax      
	 6	 7	 0.00064	 0.0305	 0	 400	 400	 400	 1.0636	 0	 1	-30	 30;
	 15	 17	 0.00035	 0.02375	 0	 500	 500	 500	 1.0767	 0	 1	-30	 30;
	 21	 22	 0.00059	 0.03093	 0	 400	 400	 400	 1.0504	 0	 1	-30	 30;
	 291	 5	 0.001651	 0.015909	 0.046948	 316	 316	 316	 0	 0	 1	-30	 30;
	 291	 6	 0.001651	 0.015909	 0.046948	 316	 316	 316	 0	 0	 1	-30	 30;
	 28	 13	 0.01676	 0.097169	 0.148685	 269	 269	 269	 0	 0	 1	-30	 30;
	 23	 7	 0.00294	 0.03463	 0.9216	 693	 693	 693	 0	 0	 1	-30	 30;
	 5	 4	 0.01043	 0.077891	 0.122065	 383	 383	 383	 0	 0	 1	-30	 30;
	 9	 20	 0.002256	 0.016674	 0.02541	 333	 333	 333	 0	 0	 1	-30	 30;
	 19	 15	 0.00244	 0.01318	 0.021296	 341	 341	 341	 0	 0	 0	-30	 30;
	 15	 1	 0.00355	 0.02593	 0.041237	 404	 404	 404	 0	 0	 1	-30	 30;
	 16	 13	 0.01312	 0.076219	 0.116644	 324	 324	 324	 0	 0	 1	-30	 30;
	 10	 4	 0.010539	 0.076859	 0.122355	 316	 316	 316	 0	 0	 1	-30	 30;
	 11	 5	 0.00469	 0.034651	 0.053821	 383	 383	 383	 0	 0	 1	-30	 30;
	 6	 2	 0.006469	 0.0413	 0.069212	 383	 383	 383	 0	 0	 1	-30	 30;
	 14	 2	 0.00105	 0.007211	 0.01028	 316	 316	 316	 0	 0	 1	-30	 30;
	 14	 11	 0.006099	 0.044831	 0.070954	 316	 316	 316	 0	 0	 1	-30	 30;
	 17	 8	 0.00371	 0.04326	 1.18688	 693	 693	 693	 0	 0	 1	-30	 30;
	 24	 29	 0.01905	 0.11132	 0.167851	 269	 269	 269	 0	 0	 1	-30	 30;
	 29	 21	 0.0057	 0.04236	 0.129712	 366	 366	 366	 0	 0	 1	-30	 30;
	 26	 22	 0.00131	 0.01548	 0.41152	 1150	 1150	 1150	 0	 0	 1	-30	 30;
	 27	 25	 0.0015	 0.01768	 0.46944	 831	 831	 831	 0	 0	 1	-30	 30;
	 49	 1	 0.00151	 0.06688	 0	 160	 160	 160	 1.001	 0	 1	-30	 30;
	 71	 2	 0.00151	 0.06688	 0	 160	 160	 160	 1.0035	 0	 1	-30	 30;
	 74	 4	 0.00161	 0.066531	 0	 160	 160	 160	 1.0011	 0	 1	-30	 30;
	 75	 4	 0.00161	 0.066531	 0	 160	 160	 160	 1.0036	 0	 1	-30	 30;
	 95	 5	 0.00163	 0.061359	 0.004162	 160	 160	 160	 1.0115	 0	 1	-30	 30;
	 101	 9	 0.001651	 0.0593	 0	 160	 160	 160	 1.0143	 0	 1	-30	 30;
	 102	 10	 0.001651	 0.0593	 0	 160	 160	 160	 1.0118	 0	 1	-30	 30;
	 114	 11	 0.000289	 0.061359	 0.004162	 160	 160	 160	 1.0147	 0	 1	-30	 30;
	 115	 11	 0.001651	 0.068599	 0	 160	 160	 160	 1.0132	 0	 1	-30	 30;
	 138	 13	 0.001651	 0.0593	 0	 160	 160	 160	 0.9811	 0	 1	-30	 30;
	 139	 13	 0.001651	 0.0593	 0	 160	 160	 160	 0.9852	 0	 1	-30	 30;
	 140	 14	 0.00281	 0.10601	 0	 100	 100	 100	 0.9302	 0	 1	-30	 30;
	 141	 14	 0.00281	 0.10601	 0	 100	 100	 100	 0.9302	 0	 1	-30	 30;
	 143	 16	 0.001651	 0.0593	 0	 160	 160	 160	 0.9966	 0	 1	-30	 30;
	 142	 17	 0.00101	 0.06188	-0.01984	 330	 330	 330	 1.0659	 0	 1	-30	 30;
	 143	 17	 0.00153	 0.06206	 0	 250	 250	 250	 1.0827	 0	 1	-30	 30;
	 155	 19	 0.001651	 0.052289	 0	 160	 160	 160	 1.028	 0	 1	-30	 30;
	 231	 23	 0.00137	 0.059687	 0	 250	 250	 250	 1.0812	 0	 1	-30	 30;
	 234	 24	 0.0037	 0.18657	 0	 120	 120	 120	 1.01	 0	 1	-30	 30;
	 271	 25	 0.00059	 0.042063	 0	 330	 330	 330	 1.085	 0	 1	-30	 30;
	 286	 27	 0.00137	 0.059687	 0	 250	 250	 250	 1.0846	 0	 1	-30	 30;
	 287	 27	 0.00137	 0.059687	 0	 250	 250	 250	 1.0846	 0	 1	-30	 30;
	 288	 28	 0.00155	 0.067975	 0	 160	 160	 160	 1.0389	 0	 1	-30	 30;
	 289	 29	 0.00161	 0.067748	 0	 160	 160	 160	 1.0367	 0	 1	-30	 30;
	 265	 100	 0.068256	 0.184298	 0.017981	 50	 50	 50	 0	 0	 0	-30	 30;
	 229	 192	 0.034628	 0.060744	 0.005711	 69	 69	 69	 0	 0	 0	-30	 30;
	 262	 131	 0.023058	 0.07438	 0.007841	 123	 123	 123	 0	 0	 0	-30	 30;
	 243	 185	 0.04314	 0.071901	 0.00741	 69	 69	 69	 0	 0	 0	-30	 30;
	 57	 95	 0.000636	 0.004826	 0.000469	 123	 123	 123	 0	 0	 1	-30	 30;
	 175	 111	 0.033471	 0.058934	 0.005779	 78	 78	 78	 0	 0	 1	-30	 30;
	 214	 111	 0.029587	 0.054711	 0.005031	 78	 78	 78	 0	 0	 1	-30	 30;
	 214	 112	 0.033058	 0.058603	 0.005571	 78	 78	 78	 0	 0	 1	-30	 30;
	 161	 117	 0.048016	 0.102636	 0.013441	 55	 55	 55	 0	 0	 1	-30	 30;
	 117	 36	 0.013802	 0.024207	 0.002299	 55	 55	 55	 0	 0	 1	-30	 30;
	 61	 54	 0.056364	 0.105207	 0.01021	 78	 78	 78	 0	 0	 1	-30	 30;
	 56	 46	 0.021744	 0.05	 0.005009	 76	 76	 76	 0	 0	 1	-30	 30;
	 98	 46	 0.034711	 0.067438	 0.006631	 76	 76	 76	 0	 0	 1	-30	 30;
	 55	 32	 0.019711	 0.06676	 0.006609	 120	 120	 120	 0	 0	 1	-30	 30;
	 165	 48	 0.022281	 0.075446	 0.00747	 123	 123	 123	 0	 0	 1	-30	 30;
	 177	 53	 0.025207	 0.082636	 0.00847	 123	 123	 123	 0	 0	 1	-30	 30;
	 207	 128	 0.024132	 0.078512	 0.008199	 123	 123	 123	 0	 0	 1	-30	 30;
	 61	 59	 0.018347	 0.062562	 0.00605	 123	 123	 123	 0	 0	 1	-30	 30;
	 147	 143	 0.080661	 0.142066	 0.013479	 120	 120	 120	 0	 0	 1	-30	 30;
	 194	 61	 0.041157	 0.104463	 0.01043	 102	 102	 102	 0	 0	 1	-30	 30;
	 216	 194	 0.058083	 0.103752	 0.00991	 78	 78	 78	 0	 0	 1	-30	 30;
	 195	 124	 0.025041	 0.042893	 0.004281	 120	 120	 120	 0	 0	 1	-30	 30;
	 186	 174	 0.016612	 0.053802	 0.005571	 91	 91	 91	 0	 0	 1	-30	 30;
	 51	 187	 0.015703	 0.05157	 0.00528	 123	 123	 123	 0	 0	 1	-30	 30;
	 138	 187	 0.024793	 0.081322	 0.008339	 120	 120	 120	 0	 0	 1	-30	 30;
	 120	 65	 0.002917	 0.009876	 0.00098	 102	 102	 102	 0	 0	 1	-30	 30;
	 64	 50	 0.006033	 0.017851	 0.00183	 102	 102	 102	 0	 0	 1	-30	 30;
	 189	 73	 0.042066	 0.141322	 0.013939	 120	 120	 120	 0	 0	 1	-30	 30;
	 189	 42	 0.029917	 0.101364	 0.010031	 120	 120	 120	 0	 0	 1	-30	 30;
	 139	 42	 0.011653	 0.03957	 0.00392	 91	 91	 91	 0	 0	 1	-30	 30;
	 37	 134	 0.003719	 0.012479	 0.001159	 102	 102	 102	 0	 0	 1	-30	 30;
	 49	 45	 0.005372	 0.015124	 0.001529	 102	 102	 102	 0	 0	 1	-30	 30;
	 190	 159	 0.004132	 0.01405	 0.001379	 123	 123	 123	 0	 0	 1	-30	 30;
	 65	 45	 0.000744	 0.002314	 0.00024	 123	 123	 123	 0	 0	 1	-30	 30;
	 209	 160	 0.007107	 0.019422	 0.002011	 102	 102	 102	 0	 0	 1	-30	 30;
	 30	 64	 0.004992	 0.016909	 0.001469	 123	 123	 123	 0	 0	 1	-30	 30;
	 200	 138	 0.019174	 0.063876	 0.00598	 123	 123	 123	 0	 0	 1	-30	 30;
	 200	 157	 0.003802	 0.012636	 0.001191	 123	 123	 123	 0	 0	 1	-30	 30;
	 200	 136	 0.001157	 0.003802	 0.00038	 123	 123	 123	 0	 0	 1	-30	 30;
	 215	 90	 0.014554	 0.053141	 0.00523	 123	 123	 123	 0	 0	 1	-30	 30;
	 131	 90	 0.017107	 0.057686	 0.00567	 123	 123	 123	 0	 0	 1	-30	 30;
	 91	 87	 0.029008	 0.051653	 0.004891	 78	 78	 78	 0	 0	 1	-30	 30;
	 116	 87	 0.016612	 0.029496	 0.00288	 78	 78	 78	 0	 0	 1	-30	 30;
	 157	 135	 0.007934	 0.026777	 0.00264	 123	 123	 123	 0	 0	 1	-30	 30;
	 136	 135	 0.008636	 0.017298	 0.00166	 78	 78	 78	 0	 0	 1	-30	 30;
	 130	 35	 0.037603	 0.067603	 0.00651	 78	 78	 78	 0	 0	 1	-30	 30;
	 137	 92	 0.014132	 0.046281	 0.004751	 123	 123	 123	 0	 0	 1	-30	 30;
	 132	 79	 0.01	 0.034793	 0.00317	 120	 120	 120	 0	 0	 1	-30	 30;
	 209	 30	 0.006099	 0.020653	 0.00204	 123	 123	 123	 0	 0	 1	-30	 30;
	 128	 79	 0.041397	 0.083554	 0.00786	 78	 78	 78	 0	 0	 1	-30	 30;
	 153	 133	 0.009678	 0.032793	 0.00325	 123	 123	 123	 0	 0	 1	-30	 30;
	 50	 34	 0.011653	 0.034628	 0.00356	 78	 78	 78	 0	 0	 1	-30	 30;
	 149	 50	 0.022041	 0.074669	 0.007391	 91	 91	 91	 0	 0	 1	-30	 30;
	 66	 149	 0.012141	 0.041124	 0.00407	 91	 91	 91	 0	 0	 1	-30	 30;
	 178	 124	 0.040331	 0.068934	 0.006921	 91	 91	 91	 0	 0	 1	-30	 30;
	 194	 147	 0.033636	 0.085446	 0.008741	 91	 91	 91	 0	 0	 1	-30	 30;
	 201	 138	 0.016686	 0.035289	 0.00341	 78	 78	 78	 0	 0	 1	-30	 30;
	 201	 193	 0.057603	 0.122149	 0.01179	 78	 78	 78	 0	 0	 1	-30	 30;
	 201	 136	 8e-06	 8.3e-05	 0	 78	 78	 78	 0	 0	 0	-30	 30;
	 194	 174	 0.035289	 0.060331	 0.00605	 78	 78	 78	 0	 0	 1	-30	 30;
	 142	 92	 0.016124	 0.05405	 0.005319	 120	 120	 120	 0	 0	 1	-30	 30;
	 195	 108	 0.039669	 0.069339	 0.006631	 78	 78	 78	 0	 0	 1	-30	 30;
	 170	 142	 0.023967	 0.042231	 0.004141	 78	 78	 78	 0	 0	 1	-30	 30;
	 170	 91	 0.046446	 0.081744	 0.00801	 78	 78	 78	 0	 0	 1	-30	 30;
	 41	 143	 0.02276	 0.077099	 0.00763	 120	 120	 120	 0	 0	 1	-30	 30;
	 178	 122	 0.01124	 0.038182	 0.00378	 91	 91	 91	 0	 0	 1	-30	 30;
	 175	 147	 0.023471	 0.057851	 0.005929	 91	 91	 91	 0	 0	 1	-30	 30;
	 139	 136	 0.009826	 0.033223	 0.003279	 123	 123	 123	 0	 0	 1	-30	 30;
	 73	 66	 0.013934	 0.047207	 0.004671	 91	 91	 91	 0	 0	 1	-30	 30;
	 215	 139	 0.060496	 0.118182	 0.011589	 78	 78	 78	 0	 0	 1	-30	 30;
	 169	 92	 0.006149	 0.020827	 0.002062	 91	 91	 91	 0	 0	 1	-30	 30;
	 186	 169	 0.007587	 0.025686	 0.002543	 91	 91	 91	 0	 0	 1	-30	 30;
	 150	 64	 0.00519	 0.014132	 0.00143	 102	 102	 102	 0	 0	 1	-30	 30;
	 193	 113	 0.067438	 0.118017	 0.01126	 10	 10	 10	 0	 0	 1	-30	 30;
	 41	 132	 0.014521	 0.049174	 0.004869	 78	 78	 78	 0	 0	 1	-30	 30;
	 150	 121	 0.001818	 0.004554	 0.00046	 91	 91	 91	 0	 0	 1	-30	 30;
	 133	 65	 0.002587	 0.00876	 0.000871	 123	 123	 123	 0	 0	 1	-30	 30;
	 137	 154	 0.001901	 0.006033	 0.00061	 123	 123	 123	 0	 0	 1	-30	 30;
	 134	 97	 0.001744	 0.004793	 0.000479	 102	 102	 102	 0	 0	 1	-30	 30;
	 137	 49	 0.00686	 0.021984	 0.00228	 123	 123	 123	 0	 0	 1	-30	 30;
	 164	 130	 0.017017	 0.055124	 0.005711	 123	 123	 123	 0	 0	 1	-30	 30;
	 160	 155	 0.010281	 0.021636	 0.002101	 78	 78	 78	 0	 0	 1	-30	 30;
	 178	 64	 0.011256	 0.038141	 0.00378	 91	 91	 91	 0	 0	 1	-30	 30;
	 202	 153	 0.003033	 0.010289	 0.001019	 102	 102	 102	 0	 0	 1	-30	 30;
	 37	 202	 0.006174	 0.017364	 0.00174	 102	 102	 102	 0	 0	 1	-30	 30;
	 209	 202	 4.1e-05	 0.000141	 1e-05	 102	 102	 102	 0	 0	 0	-30	 30;
	 143	 68	 0.007314	 0.012793	 0.00122	 78	 78	 78	 0	 0	 1	-30	 30;
	 142	 158	 0.009587	 0.024744	 0.00251	 102	 102	 102	 0	 0	 1	-30	 30;
	 143	 159	 0.009587	 0.024744	 0.00251	 102	 102	 102	 0	 0	 1	-30	 30;
	 103	 142	 0.013438	 0.023826	 0.00227	 78	 78	 78	 0	 0	 1	-30	 30;
	 156	 103	 0.006983	 0.012793	 0.00098	 78	 78	 78	 0	 0	 1	-30	 30;
	 143	 89	 0.005744	 0.019438	 0.001919	 123	 123	 123	 0	 0	 1	-30	 30;
	 154	 123	 0.003388	 0.010992	 0.00114	 123	 123	 123	 0	 0	 1	-30	 30;
	 123	 65	 0.00281	 0.009091	 0.000939	 123	 123	 123	 0	 0	 1	-30	 30;
	 156	 122	 0.014752	 0.049984	 0.004949	 78	 78	 78	 0	 0	 1	-30	 30;
	 190	 154	 0.00405	 0.013388	 0.001379	 123	 123	 123	 0	 0	 1	-30	 30;
	 216	 51	 0.010314	 0.017967	 0.001711	 78	 78	 78	 0	 0	 1	-30	 30;
	 189	 164	 0.039504	 0.072314	 0.007279	 78	 78	 78	 0	 0	 1	-30	 30;
	 150	 47	 0.001653	 0.005372	 0.000549	 123	 123	 123	 0	 0	 1	-30	 30;
	 190	 47	 0.001818	 0.00595	 0.000629	 123	 123	 123	 0	 0	 1	-30	 30;
	 97	 89	 0.00405	 0.013314	 0.001379	 123	 123	 123	 0	 0	 1	-30	 30;
	 156	 69	 0.020347	 0.035578	 0.0034	 78	 78	 78	 0	 0	 1	-30	 30;
	 155	 116	 0.022719	 0.039727	 0.00379	 78	 78	 78	 0	 0	 1	-30	 30;
	 98	 54	 0.046686	 0.095446	 0.00939	 76	 76	 76	 0	 0	 1	-30	 30;
	 96	 55	 0.033967	 0.059422	 0.00567	 78	 78	 78	 0	 0	 1	-30	 30;
	 173	 74	 0.027364	 0.091818	 0.00907	 78	 78	 78	 0	 0	 1	-30	 30;
	 176	 75	 0.02719	 0.087934	 0.009099	 123	 123	 123	 0	 0	 1	-30	 30;
	 96	 86	 0.029669	 0.049256	 0.004859	 78	 78	 78	 0	 0	 1	-30	 30;
	 176	 59	 0.025207	 0.081818	 0.009169	 123	 123	 123	 0	 0	 1	-30	 30;
	 199	 88	 0.059446	 0.103983	 0.00992	 76	 76	 76	 0	 0	 1	-30	 30;
	 36	 199	 0.018769	 0.032818	 0.003129	 76	 76	 76	 0	 0	 1	-30	 30;
	 118	 199	 0.021107	 0.071504	 0.007081	 76	 76	 76	 0	 0	 1	-30	 30;
	 198	 74	 0.024727	 0.054	 0.00523	 78	 78	 78	 0	 0	 1	-30	 30;
	 177	 198	 0.053826	 0.110008	 0.010609	 78	 78	 78	 0	 0	 1	-30	 30;
	 105	 198	 0.00257	 0.004488	 0.000431	 78	 78	 78	 0	 0	 1	-30	 30;
	 88	 74	 0.001397	 0.004628	 0.00046	 76	 76	 76	 0	 0	 1	-30	 30;
	 166	 165	 0.026612	 0.086612	 0.00899	 123	 123	 123	 0	 0	 1	-30	 30;
	 173	 112	 0.021984	 0.073802	 0.007359	 78	 78	 78	 0	 0	 1	-30	 30;
	 197	 75	 0.03224	 0.069984	 0.006778	 78	 78	 78	 0	 0	 1	-30	 30;
	 104	 197	 0.001975	 0.003455	 0.000329	 78	 78	 78	 0	 0	 1	-30	 30;
	 55	 197	 0.069529	 0.121603	 0.011602	 78	 78	 78	 0	 0	 1	-30	 30;
	 166	 86	 0.031488	 0.052149	 0.00515	 76	 76	 76	 0	 0	 1	-30	 30;
	 82	 74	 0.010397	 0.037041	 0.002819	 78	 78	 78	 0	 0	 1	-30	 30;
	 81	 82	 0.003752	 0.006562	 0.000629	 78	 78	 78	 0	 0	 1	-30	 30;
	 78	 81	 0.007107	 0.012438	 0.001191	 78	 78	 78	 0	 0	 1	-30	 30;
	 85	 75	 0.004149	 0.007256	 0.00069	 78	 78	 78	 0	 0	 1	-30	 30;
	 77	 85	 0.006521	 0.011397	 0.001089	 78	 78	 78	 0	 0	 1	-30	 30;
	 114	 52	 0.019826	 0.055041	 0.005951	 76	 76	 76	 0	 0	 1	-30	 30;
	 203	 183	 0.010934	 0.030479	 0.003071	 102	 102	 102	 0	 0	 1	-30	 30;
	 52	 203	 0.003752	 0.010248	 0.001031	 102	 102	 102	 0	 0	 1	-30	 30;
	 208	 203	 0.003826	 0.006686	 0.000639	 102	 102	 102	 0	 0	 1	-30	 30;
	 217	 152	 0.011727	 0.030521	 0.00303	 78	 78	 78	 0	 0	 1	-30	 30;
	 217	 115	 0.040231	 0.102769	 0.01021	 78	 78	 78	 0	 0	 1	-30	 30;
	 182	 115	 0.028603	 0.053223	 0.00515	 76	 76	 76	 0	 0	 1	-30	 30;
	 40	 57	 9.1e-05	 0.000686	 7e-05	 120	 120	 120	 0	 0	 1	-30	 30;
	 80	 40	 0.005554	 0.018182	 0.001861	 120	 120	 120	 0	 0	 1	-30	 30;
	 151	 71	 0.025603	 0.078397	 0.008061	 78	 78	 78	 0	 0	 1	-30	 30;
	 152	 84	 0.006612	 0.018256	 0.001941	 102	 102	 102	 0	 0	 1	-30	 30;
	 184	 71	 0.009603	 0.024744	 0.00251	 69	 69	 69	 0	 0	 1	-30	 30;
...